File C:\Users\mnwpa\OneDrive\Documents\GitHub\StructGNN\3DFrame.$2k was saved on m/d/yy at h:mm:ss
 
TABLE:  "ACTIVE DEGREES OF FREEDOM"
   UX=Yes   UY=Yes   UZ=Yes   RX=Yes   RY=Yes   RZ=Yes
 
TABLE:  "ANALYSIS OPTIONS"
   Solver=Advanced   SolverProc=Auto   Force32Bit=No   StiffCase=None   GeomMod=None   HingeOpt="In Elements"   NumAThreads=0   MaxFileSize=0   NumDThreads=0   NumRThreads=0   UseMMFiles="Program Determined"   AllowDiff=No
 
TABLE:  "AUTO WAVE 3 - WAVE CHARACTERISTICS - GENERAL"
   WaveChar=Default   WaveType="From Theory"   KinFactor=1   SWaterDepth=150   WaveHeight=60   WavePeriod=12   WaveTheory=Linear
 
TABLE:  "CASE - MODAL 1 - GENERAL"
   Case=MODAL   ModeType=Eigen   MaxNumModes=12   MinNumModes=1   EigenShift=0   EigenCutoff=0   EigenTol=1E-09   AutoShift=Yes
 
TABLE:  "CASE - STATIC 1 - LOAD ASSIGNMENTS"
   Case=DEAD   LoadType="Load pattern"   LoadName=DEAD   LoadSF=1
   Case=TOP_LOAD   LoadType="Load pattern"   LoadName=TOP_LOAD   LoadSF=1
 
TABLE:  "CONNECTIVITY - FRAME"
   Frame=1   JointI=1   JointJ=2   IsCurved=No   GUID=4a2da4be-796c-4bd7-86c9-84bc2f4be660
   Frame=2   JointI=2   JointJ=3   IsCurved=No   GUID=943bf18e-07b2-40d6-a3fd-071a986d5066
   Frame=3   JointI=4   JointJ=5   IsCurved=No   GUID=09394d95-f44a-48ad-8fde-ec5ca992796a
   Frame=4   JointI=5   JointJ=6   IsCurved=No   GUID=4f654311-b145-4b2b-94fe-4374da8c0c32
   Frame=5   JointI=7   JointJ=8   IsCurved=No   GUID=6669d7e7-f78f-49b6-a388-d98d2e09845a
   Frame=6   JointI=8   JointJ=9   IsCurved=No   GUID=63fc977f-6c9e-40ac-b139-891d37cbd25a
   Frame=7   JointI=10   JointJ=11   IsCurved=No   GUID=744ab970-9ba7-4cd9-92c3-bbde35c7b271
   Frame=8   JointI=11   JointJ=12   IsCurved=No   GUID=b21b475a-020b-410c-ad55-156e970845e5
   Frame=9   JointI=13   JointJ=14   IsCurved=No   GUID=6e4f0350-65ff-4950-94b6-95b503e3615f
   Frame=10   JointI=14   JointJ=15   IsCurved=No   GUID=e8e9680d-bbb0-41cf-ad43-e028078531af
   Frame=11   JointI=16   JointJ=17   IsCurved=No   GUID=5bef590b-7827-43ea-8cd0-a8b847840088
   Frame=12   JointI=17   JointJ=18   IsCurved=No   GUID=2eebd6ba-2155-4c63-aa2f-85d54e206f1a
   Frame=13   JointI=19   JointJ=20   IsCurved=No   GUID=cf397388-7437-4dba-95f8-08771e0927c2
   Frame=14   JointI=20   JointJ=21   IsCurved=No   GUID=b853d920-47c1-4390-82ba-000262f5bc5a
   Frame=15   JointI=22   JointJ=23   IsCurved=No   GUID=e5917473-9608-407c-8105-b87ef909003d
   Frame=16   JointI=23   JointJ=24   IsCurved=No   GUID=f99ccfef-3523-4c82-a102-f041b034e7c1
   Frame=17   JointI=25   JointJ=26   IsCurved=No   GUID=3e07ee05-32f5-4128-b4a3-2989145bf8b3
   Frame=18   JointI=26   JointJ=27   IsCurved=No   GUID=b72b1440-552c-41ce-bf10-9fcaa0b78e72
   Frame=19   JointI=28   JointJ=29   IsCurved=No   GUID=e203c09a-8a68-4eec-b30b-16093794ebcd
   Frame=20   JointI=29   JointJ=30   IsCurved=No   GUID=65b998af-624c-486f-bdb0-ec39ea60423e
   Frame=21   JointI=31   JointJ=32   IsCurved=No   GUID=1be98690-4a0a-4cdf-9bf0-c73b9445a885
   Frame=22   JointI=32   JointJ=33   IsCurved=No   GUID=8a9d1b54-1352-4d30-8458-2025c5567d90
   Frame=23   JointI=34   JointJ=35   IsCurved=No   GUID=3849eec7-1bda-4241-97d3-b8773eda4ef9
   Frame=24   JointI=35   JointJ=36   IsCurved=No   GUID=3130a9bb-dd9c-4ee9-b0e9-204390822cb7
   Frame=25   JointI=37   JointJ=38   IsCurved=No   GUID=276075a3-1996-4271-9006-8f4b8bc989ba
   Frame=26   JointI=38   JointJ=39   IsCurved=No   GUID=ecf18c21-2fd1-4782-abcc-034f7b5b3946
   Frame=27   JointI=40   JointJ=41   IsCurved=No   GUID=a8f1eae7-c261-40ed-8a3f-32708e672b31
   Frame=28   JointI=41   JointJ=42   IsCurved=No   GUID=16823d66-be49-464c-bd32-458e4065e9ce
   Frame=29   JointI=43   JointJ=44   IsCurved=No   GUID=6f6da701-ecb2-4b95-a3fa-2c8d2c8329c4
   Frame=30   JointI=44   JointJ=45   IsCurved=No   GUID=39af634c-72ea-4916-94b7-c217d68d3c8a
   Frame=31   JointI=46   JointJ=47   IsCurved=No   GUID=38e86eed-129c-40b8-a02e-e6d5dde06579
   Frame=32   JointI=47   JointJ=48   IsCurved=No   GUID=faf9519f-94fa-4011-8cc6-80f663c4e4a3
   Frame=33   JointI=2   JointJ=14   IsCurved=No   GUID=7ce964e4-ac04-4076-9ae8-afa0f7cbc6e5
   Frame=34   JointI=3   JointJ=15   IsCurved=No   GUID=b36bfb04-3150-4089-be6b-719a9dbf162b
   Frame=35   JointI=14   JointJ=26   IsCurved=No   GUID=13604c4e-6b66-4738-9184-340b9ff17cfb
   Frame=36   JointI=15   JointJ=27   IsCurved=No   GUID=d552b9b0-cf91-4246-b209-71c59a753007
   Frame=37   JointI=26   JointJ=38   IsCurved=No   GUID=87150cba-0253-46da-9d75-864653e0e448
   Frame=38   JointI=27   JointJ=39   IsCurved=No   GUID=c024f897-48f1-481c-aa7a-ce749f2fa487
   Frame=39   JointI=5   JointJ=17   IsCurved=No   GUID=68a7854b-cff7-4f5b-85f3-b7e04631c1c0
   Frame=40   JointI=6   JointJ=18   IsCurved=No   GUID=a4c8d2c6-e90e-4d43-b82c-4381cc5cfe12
   Frame=41   JointI=17   JointJ=29   IsCurved=No   GUID=4dca66f5-b733-46f2-83cd-a43b6f19cc39
   Frame=42   JointI=18   JointJ=30   IsCurved=No   GUID=b461e549-9092-4160-b3dc-5767b93af1ba
   Frame=43   JointI=29   JointJ=41   IsCurved=No   GUID=85dce29d-3877-4116-8d0d-380da89a5c13
   Frame=44   JointI=30   JointJ=42   IsCurved=No   GUID=4a36ca44-812e-4c58-9175-0a33afad917a
   Frame=45   JointI=8   JointJ=20   IsCurved=No   GUID=7ad29e4e-a553-4b3e-947d-b84614f87fe8
   Frame=46   JointI=9   JointJ=21   IsCurved=No   GUID=1e887dbd-7f88-4d37-9ab9-d3ee14f64bc1
   Frame=47   JointI=20   JointJ=32   IsCurved=No   GUID=6c35341a-ff14-403c-ac89-dee17bb76eb2
   Frame=48   JointI=21   JointJ=33   IsCurved=No   GUID=c4d69586-fb88-44bc-bf8c-624d8b2d3141
   Frame=49   JointI=32   JointJ=44   IsCurved=No   GUID=0ede42c5-fecc-4636-a5e9-7311967abc5b
   Frame=50   JointI=33   JointJ=45   IsCurved=No   GUID=6a11aaa5-0081-4db8-8ce9-65c604948d50
   Frame=51   JointI=11   JointJ=23   IsCurved=No   GUID=db5a5ff0-247e-4e36-a63b-92011cbd5653
   Frame=52   JointI=12   JointJ=24   IsCurved=No   GUID=69e0bc80-abc9-40f0-aad8-29dde0f80554
   Frame=53   JointI=23   JointJ=35   IsCurved=No   GUID=e36b97df-3ac7-4e30-adab-2af1106f976d
   Frame=54   JointI=24   JointJ=36   IsCurved=No   GUID=7160b036-6b75-4356-b274-27c8801e88ae
   Frame=55   JointI=35   JointJ=47   IsCurved=No   GUID=e07c9d8c-e15b-42b5-bd66-9e7d5a9dbd5d
   Frame=56   JointI=36   JointJ=48   IsCurved=No   GUID=f4e41e86-428c-4051-9f79-bfe6df5af4fd
   Frame=57   JointI=2   JointJ=5   IsCurved=No   GUID=38ca4257-a502-431d-94ec-3710989e0f09
   Frame=58   JointI=3   JointJ=6   IsCurved=No   GUID=833dd416-f95b-4667-8b01-4a08c5ca77b6
   Frame=59   JointI=5   JointJ=8   IsCurved=No   GUID=c4479c39-53e3-4f08-a1e9-8158e5b9151f
   Frame=60   JointI=6   JointJ=9   IsCurved=No   GUID=88d2da71-0060-4a8f-a2ba-e693cf78f367
   Frame=61   JointI=8   JointJ=11   IsCurved=No   GUID=e7986fc5-92c5-45be-9b27-25d5f16459d0
   Frame=62   JointI=9   JointJ=12   IsCurved=No   GUID=d96faa9a-0340-44f3-aaa1-5d422f4f6680
   Frame=63   JointI=14   JointJ=17   IsCurved=No   GUID=d6cdf5bc-ea44-4d7a-ab5b-27c010e785b0
   Frame=64   JointI=15   JointJ=18   IsCurved=No   GUID=23ef68cb-0792-4755-8cb9-ddec586b3d94
   Frame=65   JointI=17   JointJ=20   IsCurved=No   GUID=5ecaab0c-172e-4722-aa09-ec3a151ed4ad
   Frame=66   JointI=18   JointJ=21   IsCurved=No   GUID=13da0cbd-972f-4cf9-9e58-b06949123d3e
   Frame=67   JointI=20   JointJ=23   IsCurved=No   GUID=248caccd-3606-407e-8e9b-55781bc335df
   Frame=68   JointI=21   JointJ=24   IsCurved=No   GUID=76a918d7-64c8-4820-9680-d1dd6ef139e4
   Frame=69   JointI=26   JointJ=29   IsCurved=No   GUID=d2e36123-11ca-4045-89e9-34d71fd63536
   Frame=70   JointI=27   JointJ=30   IsCurved=No   GUID=72aa251f-37f1-46f5-a3c7-324cba2cdcaf
   Frame=71   JointI=29   JointJ=32   IsCurved=No   GUID=da671c0e-7e28-48d2-8b1b-4eb1443cc037
   Frame=72   JointI=30   JointJ=33   IsCurved=No   GUID=b354bcd0-9caa-4ca8-b018-300eed54d6d1
   Frame=73   JointI=32   JointJ=35   IsCurved=No   GUID=b9dc1237-fdb6-4023-9dfc-daeac0c2696d
   Frame=74   JointI=33   JointJ=36   IsCurved=No   GUID=6a0ead25-0ca2-4238-af7a-5b30e5d06bca
   Frame=75   JointI=38   JointJ=41   IsCurved=No   GUID=2af93049-6113-4817-819e-ee982926d0be
   Frame=76   JointI=39   JointJ=42   IsCurved=No   GUID=fb2d8c13-1986-4462-ac18-94889a2d435a
   Frame=77   JointI=41   JointJ=44   IsCurved=No   GUID=0ebc2ae1-dd94-4984-9549-63ad17ecaec7
   Frame=78   JointI=42   JointJ=45   IsCurved=No   GUID=c00fd820-51e4-4645-baed-e5b233d5cc89
   Frame=79   JointI=44   JointJ=47   IsCurved=No   GUID=90d8f5a5-5252-49ab-8695-e442b223c3d1
   Frame=80   JointI=45   JointJ=48   IsCurved=No   GUID=141ebb97-12e0-4e22-944d-3ed903b9cac4
 
TABLE:  "COORDINATE SYSTEMS"
   Name=GLOBAL   Type=Cartesian   X=0   Y=0   Z=0   AboutZ=0   AboutY=0   AboutX=0
 
TABLE:  "DATABASE DOCUMENTATION"
 
TABLE:  "DATABASE FORMAT TYPES"
   UnitsCurr=Yes   OverrideE=No
 
TABLE:  "FRAME AUTO MESH ASSIGNMENTS"
   Frame=1   AutoMesh=Yes   AtJoints=Yes   AtFrames=No   NumSegments=0   MaxLength=0   MaxDegrees=0
   Frame=2   AutoMesh=Yes   AtJoints=Yes   AtFrames=No   NumSegments=0   MaxLength=0   MaxDegrees=0
   Frame=3   AutoMesh=Yes   AtJoints=Yes   AtFrames=No   NumSegments=0   MaxLength=0   MaxDegrees=0
   Frame=4   AutoMesh=Yes   AtJoints=Yes   AtFrames=No   NumSegments=0   MaxLength=0   MaxDegrees=0
   Frame=5   AutoMesh=Yes   AtJoints=Yes   AtFrames=No   NumSegments=0   MaxLength=0   MaxDegrees=0
   Frame=6   AutoMesh=Yes   AtJoints=Yes   AtFrames=No   NumSegments=0   MaxLength=0   MaxDegrees=0
   Frame=7   AutoMesh=Yes   AtJoints=Yes   AtFrames=No   NumSegments=0   MaxLength=0   MaxDegrees=0
   Frame=8   AutoMesh=Yes   AtJoints=Yes   AtFrames=No   NumSegments=0   MaxLength=0   MaxDegrees=0
   Frame=9   AutoMesh=Yes   AtJoints=Yes   AtFrames=No   NumSegments=0   MaxLength=0   MaxDegrees=0
   Frame=10   AutoMesh=Yes   AtJoints=Yes   AtFrames=No   NumSegments=0   MaxLength=0   MaxDegrees=0
   Frame=11   AutoMesh=Yes   AtJoints=Yes   AtFrames=No   NumSegments=0   MaxLength=0   MaxDegrees=0
   Frame=12   AutoMesh=Yes   AtJoints=Yes   AtFrames=No   NumSegments=0   MaxLength=0   MaxDegrees=0
   Frame=13   AutoMesh=Yes   AtJoints=Yes   AtFrames=No   NumSegments=0   MaxLength=0   MaxDegrees=0
   Frame=14   AutoMesh=Yes   AtJoints=Yes   AtFrames=No   NumSegments=0   MaxLength=0   MaxDegrees=0
   Frame=15   AutoMesh=Yes   AtJoints=Yes   AtFrames=No   NumSegments=0   MaxLength=0   MaxDegrees=0
   Frame=16   AutoMesh=Yes   AtJoints=Yes   AtFrames=No   NumSegments=0   MaxLength=0   MaxDegrees=0
   Frame=17   AutoMesh=Yes   AtJoints=Yes   AtFrames=No   NumSegments=0   MaxLength=0   MaxDegrees=0
   Frame=18   AutoMesh=Yes   AtJoints=Yes   AtFrames=No   NumSegments=0   MaxLength=0   MaxDegrees=0
   Frame=19   AutoMesh=Yes   AtJoints=Yes   AtFrames=No   NumSegments=0   MaxLength=0   MaxDegrees=0
   Frame=20   AutoMesh=Yes   AtJoints=Yes   AtFrames=No   NumSegments=0   MaxLength=0   MaxDegrees=0
# ... 60 like lines cut
 
TABLE:  "FRAME DESIGN PROCEDURES"
   Frame=1   DesignProc="From Material"
   Frame=2   DesignProc="From Material"
   Frame=3   DesignProc="From Material"
   Frame=4   DesignProc="From Material"
   Frame=5   DesignProc="From Material"
   Frame=6   DesignProc="From Material"
   Frame=7   DesignProc="From Material"
   Frame=8   DesignProc="From Material"
   Frame=9   DesignProc="From Material"
   Frame=10   DesignProc="From Material"
   Frame=11   DesignProc="From Material"
   Frame=12   DesignProc="From Material"
   Frame=13   DesignProc="From Material"
   Frame=14   DesignProc="From Material"
   Frame=15   DesignProc="From Material"
   Frame=16   DesignProc="From Material"
   Frame=17   DesignProc="From Material"
   Frame=18   DesignProc="From Material"
   Frame=19   DesignProc="From Material"
   Frame=20   DesignProc="From Material"
# ... 60 like lines cut
 
TABLE:  "FRAME LOAD TRANSFER OPTIONS"
   Frame=1   Transfer=Yes
   Frame=2   Transfer=Yes
   Frame=3   Transfer=Yes
   Frame=4   Transfer=Yes
   Frame=5   Transfer=Yes
   Frame=6   Transfer=Yes
   Frame=7   Transfer=Yes
   Frame=8   Transfer=Yes
   Frame=9   Transfer=Yes
   Frame=10   Transfer=Yes
   Frame=11   Transfer=Yes
   Frame=12   Transfer=Yes
   Frame=13   Transfer=Yes
   Frame=14   Transfer=Yes
   Frame=15   Transfer=Yes
   Frame=16   Transfer=Yes
   Frame=17   Transfer=Yes
   Frame=18   Transfer=Yes
   Frame=19   Transfer=Yes
   Frame=20   Transfer=Yes
# ... 60 like lines cut
 
TABLE:  "FRAME OUTPUT STATION ASSIGNMENTS"
   Frame=1   StationType=MinNumSta   MinNumSta=3   AddAtElmInt=Yes   AddAtPtLoad=Yes
   Frame=2   StationType=MinNumSta   MinNumSta=3   AddAtElmInt=Yes   AddAtPtLoad=Yes
   Frame=3   StationType=MinNumSta   MinNumSta=3   AddAtElmInt=Yes   AddAtPtLoad=Yes
   Frame=4   StationType=MinNumSta   MinNumSta=3   AddAtElmInt=Yes   AddAtPtLoad=Yes
   Frame=5   StationType=MinNumSta   MinNumSta=3   AddAtElmInt=Yes   AddAtPtLoad=Yes
   Frame=6   StationType=MinNumSta   MinNumSta=3   AddAtElmInt=Yes   AddAtPtLoad=Yes
   Frame=7   StationType=MinNumSta   MinNumSta=3   AddAtElmInt=Yes   AddAtPtLoad=Yes
   Frame=8   StationType=MinNumSta   MinNumSta=3   AddAtElmInt=Yes   AddAtPtLoad=Yes
   Frame=9   StationType=MinNumSta   MinNumSta=3   AddAtElmInt=Yes   AddAtPtLoad=Yes
   Frame=10   StationType=MinNumSta   MinNumSta=3   AddAtElmInt=Yes   AddAtPtLoad=Yes
   Frame=11   StationType=MinNumSta   MinNumSta=3   AddAtElmInt=Yes   AddAtPtLoad=Yes
   Frame=12   StationType=MinNumSta   MinNumSta=3   AddAtElmInt=Yes   AddAtPtLoad=Yes
   Frame=13   StationType=MinNumSta   MinNumSta=3   AddAtElmInt=Yes   AddAtPtLoad=Yes
   Frame=14   StationType=MinNumSta   MinNumSta=3   AddAtElmInt=Yes   AddAtPtLoad=Yes
   Frame=15   StationType=MinNumSta   MinNumSta=3   AddAtElmInt=Yes   AddAtPtLoad=Yes
   Frame=16   StationType=MinNumSta   MinNumSta=3   AddAtElmInt=Yes   AddAtPtLoad=Yes
   Frame=17   StationType=MinNumSta   MinNumSta=3   AddAtElmInt=Yes   AddAtPtLoad=Yes
   Frame=18   StationType=MinNumSta   MinNumSta=3   AddAtElmInt=Yes   AddAtPtLoad=Yes
   Frame=19   StationType=MinNumSta   MinNumSta=3   AddAtElmInt=Yes   AddAtPtLoad=Yes
   Frame=20   StationType=MinNumSta   MinNumSta=3   AddAtElmInt=Yes   AddAtPtLoad=Yes
# ... 12 like lines cut
   Frame=33   StationType=MaxStaSpcg   MaxStaSpcg=2   AddAtElmInt=Yes   AddAtPtLoad=Yes
   Frame=34   StationType=MaxStaSpcg   MaxStaSpcg=2   AddAtElmInt=Yes   AddAtPtLoad=Yes
   Frame=35   StationType=MaxStaSpcg   MaxStaSpcg=2   AddAtElmInt=Yes   AddAtPtLoad=Yes
   Frame=36   StationType=MaxStaSpcg   MaxStaSpcg=2   AddAtElmInt=Yes   AddAtPtLoad=Yes
   Frame=37   StationType=MaxStaSpcg   MaxStaSpcg=2   AddAtElmInt=Yes   AddAtPtLoad=Yes
   Frame=38   StationType=MaxStaSpcg   MaxStaSpcg=2   AddAtElmInt=Yes   AddAtPtLoad=Yes
   Frame=39   StationType=MaxStaSpcg   MaxStaSpcg=2   AddAtElmInt=Yes   AddAtPtLoad=Yes
   Frame=40   StationType=MaxStaSpcg   MaxStaSpcg=2   AddAtElmInt=Yes   AddAtPtLoad=Yes
   Frame=41   StationType=MaxStaSpcg   MaxStaSpcg=2   AddAtElmInt=Yes   AddAtPtLoad=Yes
   Frame=42   StationType=MaxStaSpcg   MaxStaSpcg=2   AddAtElmInt=Yes   AddAtPtLoad=Yes
   Frame=43   StationType=MaxStaSpcg   MaxStaSpcg=2   AddAtElmInt=Yes   AddAtPtLoad=Yes
   Frame=44   StationType=MaxStaSpcg   MaxStaSpcg=2   AddAtElmInt=Yes   AddAtPtLoad=Yes
   Frame=45   StationType=MaxStaSpcg   MaxStaSpcg=2   AddAtElmInt=Yes   AddAtPtLoad=Yes
   Frame=46   StationType=MaxStaSpcg   MaxStaSpcg=2   AddAtElmInt=Yes   AddAtPtLoad=Yes
   Frame=47   StationType=MaxStaSpcg   MaxStaSpcg=2   AddAtElmInt=Yes   AddAtPtLoad=Yes
   Frame=48   StationType=MaxStaSpcg   MaxStaSpcg=2   AddAtElmInt=Yes   AddAtPtLoad=Yes
   Frame=49   StationType=MaxStaSpcg   MaxStaSpcg=2   AddAtElmInt=Yes   AddAtPtLoad=Yes
   Frame=50   StationType=MaxStaSpcg   MaxStaSpcg=2   AddAtElmInt=Yes   AddAtPtLoad=Yes
   Frame=51   StationType=MaxStaSpcg   MaxStaSpcg=2   AddAtElmInt=Yes   AddAtPtLoad=Yes
   Frame=52   StationType=MaxStaSpcg   MaxStaSpcg=2   AddAtElmInt=Yes   AddAtPtLoad=Yes
# ... 28 like lines cut
 
TABLE:  "FRAME SECTION ASSIGNMENTS"
   Frame=1   AutoSelect=N.A.   AnalSect=FSEC1   MatProp=Default
   Frame=2   AutoSelect=N.A.   AnalSect=FSEC1   MatProp=Default
   Frame=3   AutoSelect=N.A.   AnalSect=FSEC1   MatProp=Default
   Frame=4   AutoSelect=N.A.   AnalSect=FSEC1   MatProp=Default
   Frame=5   AutoSelect=N.A.   AnalSect=FSEC1   MatProp=Default
   Frame=6   AutoSelect=N.A.   AnalSect=FSEC1   MatProp=Default
   Frame=7   AutoSelect=N.A.   AnalSect=FSEC1   MatProp=Default
   Frame=8   AutoSelect=N.A.   AnalSect=FSEC1   MatProp=Default
   Frame=9   AutoSelect=N.A.   AnalSect=FSEC1   MatProp=Default
   Frame=10   AutoSelect=N.A.   AnalSect=FSEC1   MatProp=Default
   Frame=11   AutoSelect=N.A.   AnalSect=FSEC1   MatProp=Default
   Frame=12   AutoSelect=N.A.   AnalSect=FSEC1   MatProp=Default
   Frame=13   AutoSelect=N.A.   AnalSect=FSEC1   MatProp=Default
   Frame=14   AutoSelect=N.A.   AnalSect=FSEC1   MatProp=Default
   Frame=15   AutoSelect=N.A.   AnalSect=FSEC1   MatProp=Default
   Frame=16   AutoSelect=N.A.   AnalSect=FSEC1   MatProp=Default
   Frame=17   AutoSelect=N.A.   AnalSect=FSEC1   MatProp=Default
   Frame=18   AutoSelect=N.A.   AnalSect=FSEC1   MatProp=Default
   Frame=19   AutoSelect=N.A.   AnalSect=FSEC1   MatProp=Default
   Frame=20   AutoSelect=N.A.   AnalSect=FSEC1   MatProp=Default
# ... 60 like lines cut
 
TABLE:  "FRAME SECTION PROPERTIES 01 - GENERAL"
   SectionName=FSEC1   Material=A992Fy50   Shape="I/Wide Flange"   t3=1   t2=0.41666666666666663   tf=0.03166666666666666   tw=0.020833333333333332   t2b=0.41666666666666663   tfb=0.03166666666666666   FilletRadius=0 _
        Area=0.04590277777777777   TorsConst=1.1182023998521087E-05   I33=0.0076149190457818925   I22=0.00038248949090149157   I23=0   AS2=0.020833333333333332   AS3=0.021990740740740738   S33Top=0.015229838091563785 _
        S33Bot=0.015229838091563785   S22Left=0.0018359495563271596   S22Right=0.0018359495563271596   Z33=0.01734612268518518   Z22=0.0028504774305555544   R33=0.40729882917458565   R22=0.09128307676869395   CGOffset3=0   CGOffset2=0 _
        EccV2=0   EccV3=0   Cw=8.949672592574727E-05   Color=Red   FromFile=No   AMod=1   A2Mod=1   A3Mod=1   JMod=1   I2Mod=1   I3Mod=1   MMod=1   WMod=1   GUID=8fa19cf7-7c39-457d-b51b-6735304574e3   Notes="Added 11/25/2025 2:54:22 AM"
 
TABLE:  "FRAME SECTION PROPERTIES 13 - TIME DEPENDENT"
   SectionName=FSEC1   TypeSize=Auto   AutoSFSize=1
 
TABLE:  "FUNCTION - PLOT FUNCTIONS"
   PlotFunc="Input Energy"   Type=Energy   Component=Input   Mode=All
 
TABLE:  "FUNCTION - POWER SPECTRAL DENSITY - USER"
   Name=UNIFPSD   Frequency=0   Value=1
   Name=UNIFPSD   Frequency=1   Value=1
 
TABLE:  "FUNCTION - RESPONSE SPECTRUM - USER"
   Name=UNIFRS   Period=0   Accel=1   FuncDamp=0.05
   Name=UNIFRS   Period=1   Accel=1
 
TABLE:  "FUNCTION - STEADY STATE - USER"
   Name=UNIFSS   Frequency=0   Value=1
   Name=UNIFSS   Frequency=1   Value=1
 
TABLE:  "FUNCTION - TIME HISTORY - USER"
   Name=RAMPTH   Time=0   Value=0
   Name=RAMPTH   Time=1   Value=1
   Name=RAMPTH   Time=4   Value=1
   Name=UNIFTH   Time=0   Value=1
   Name=UNIFTH   Time=1   Value=1
 
TABLE:  "GRID LINES"
   CoordSys=GLOBAL   AxisDir=X   GridID=A   XRYZCoord=-30   LineType=Primary   LineColor=Gray8Dark   Visible=No   BubbleLoc=End   AllVisible=Yes   BubbleSize=4
   CoordSys=GLOBAL   AxisDir=X   GridID=B   XRYZCoord=-10   LineType=Primary   LineColor=Gray8Dark   Visible=No   BubbleLoc=End
   CoordSys=GLOBAL   AxisDir=X   GridID=C   XRYZCoord=10   LineType=Primary   LineColor=Gray8Dark   Visible=No   BubbleLoc=End
   CoordSys=GLOBAL   AxisDir=X   GridID=D   XRYZCoord=30   LineType=Primary   LineColor=Gray8Dark   Visible=No   BubbleLoc=End
   CoordSys=GLOBAL   AxisDir=Y   GridID=1   XRYZCoord=-30   LineType=Primary   LineColor=Gray8Dark   Visible=No   BubbleLoc=Start
   CoordSys=GLOBAL   AxisDir=Y   GridID=2   XRYZCoord=-10   LineType=Primary   LineColor=Gray8Dark   Visible=No   BubbleLoc=Start
   CoordSys=GLOBAL   AxisDir=Y   GridID=3   XRYZCoord=10   LineType=Primary   LineColor=Gray8Dark   Visible=No   BubbleLoc=Start
   CoordSys=GLOBAL   AxisDir=Y   GridID=4   XRYZCoord=30   LineType=Primary   LineColor=Gray8Dark   Visible=No   BubbleLoc=Start
   CoordSys=GLOBAL   AxisDir=Z   GridID=Z1   XRYZCoord=0   LineType=Primary   LineColor=Gray8Dark   Visible=No   BubbleLoc=End
   CoordSys=GLOBAL   AxisDir=Z   GridID=Z2   XRYZCoord=12   LineType=Primary   LineColor=Gray8Dark   Visible=No   BubbleLoc=End
   CoordSys=GLOBAL   AxisDir=Z   GridID=Z3   XRYZCoord=24   LineType=Primary   LineColor=Gray8Dark   Visible=No   BubbleLoc=End
 
TABLE:  "GROUPS 1 - DEFINITIONS"
   GroupName=ALL   Selection=Yes   SectionCut=Yes   Steel=Yes   Concrete=Yes   Aluminum=Yes   ColdFormed=Yes   Stage=Yes   Bridge=Yes   AutoSeismic=No   AutoWind=No   SelDesSteel=No   SelDesAlum=No   SelDesCold=No   MassWeight=Yes   Color=Red
 
TABLE:  "JOINT COORDINATES"
   Joint=1   CoordSys=GLOBAL   CoordType=Cartesian   XorR=-30   Y=-30   Z=0   SpecialJt=No   GUID=ca830adc-8fb4-405b-9b8d-6df110d48329
   Joint=2   CoordSys=GLOBAL   CoordType=Cartesian   XorR=-30   Y=-30   Z=12   SpecialJt=No   GUID=c7a35220-f179-46c0-9590-f3aebeb3bbcb
   Joint=3   CoordSys=GLOBAL   CoordType=Cartesian   XorR=-30   Y=-30   Z=24   SpecialJt=No   GUID=bd1aa2b2-8a38-470e-b9cc-6c4c94956557
   Joint=4   CoordSys=GLOBAL   CoordType=Cartesian   XorR=-30   Y=-10   Z=0   SpecialJt=No   GUID=f4347364-dd5f-4203-ba20-bb6b2c2c6391
   Joint=5   CoordSys=GLOBAL   CoordType=Cartesian   XorR=-30   Y=-10   Z=12   SpecialJt=No   GUID=2ccf109c-dda4-4356-9a18-5a1f84e2f775
   Joint=6   CoordSys=GLOBAL   CoordType=Cartesian   XorR=-30   Y=-10   Z=24   SpecialJt=No   GUID=4ac7cbcb-09e5-4b53-bd62-e11e101bc01a
   Joint=7   CoordSys=GLOBAL   CoordType=Cartesian   XorR=-30   Y=10   Z=0   SpecialJt=No   GUID=c5b025df-a2ac-4a40-97f3-df21ace5c5c4
   Joint=8   CoordSys=GLOBAL   CoordType=Cartesian   XorR=-30   Y=10   Z=12   SpecialJt=No   GUID=8c1fb17a-02cf-4ceb-aa42-b02bdc446fca
   Joint=9   CoordSys=GLOBAL   CoordType=Cartesian   XorR=-30   Y=10   Z=24   SpecialJt=No   GUID=12278021-7d1d-4bde-8faa-ba3b5fd0b8c2
   Joint=10   CoordSys=GLOBAL   CoordType=Cartesian   XorR=-30   Y=30   Z=0   SpecialJt=No   GUID=7b9c8fa5-82c3-4e5d-bc2c-908502b13d9d
   Joint=11   CoordSys=GLOBAL   CoordType=Cartesian   XorR=-30   Y=30   Z=12   SpecialJt=No   GUID=f7cf91d4-dfaf-4e22-92ff-f5e12d692fa8
   Joint=12   CoordSys=GLOBAL   CoordType=Cartesian   XorR=-30   Y=30   Z=24   SpecialJt=No   GUID=b58e4b50-7e4e-40c1-8033-922a76dec9c4
   Joint=13   CoordSys=GLOBAL   CoordType=Cartesian   XorR=-10   Y=-30   Z=0   SpecialJt=No   GUID=f1373e6e-3243-4d2f-9e59-c9f1d4313749
   Joint=14   CoordSys=GLOBAL   CoordType=Cartesian   XorR=-10   Y=-30   Z=12   SpecialJt=No   GUID=456e6c39-279f-4a7b-8b14-631d2053ec23
   Joint=15   CoordSys=GLOBAL   CoordType=Cartesian   XorR=-10   Y=-30   Z=24   SpecialJt=No   GUID=d8e053d1-901f-49dc-9a49-811c9187ec40
   Joint=16   CoordSys=GLOBAL   CoordType=Cartesian   XorR=-10   Y=-10   Z=0   SpecialJt=No   GUID=ab797592-b3d1-4eed-ba8b-42e44f6cf6a1
   Joint=17   CoordSys=GLOBAL   CoordType=Cartesian   XorR=-10   Y=-10   Z=12   SpecialJt=No   GUID=974c19a7-af10-4722-a65f-bd7cdfaa141b
   Joint=18   CoordSys=GLOBAL   CoordType=Cartesian   XorR=-10   Y=-10   Z=24   SpecialJt=No   GUID=fd163713-3431-46ad-ab38-faed2a67d8d2
   Joint=19   CoordSys=GLOBAL   CoordType=Cartesian   XorR=-10   Y=10   Z=0   SpecialJt=No   GUID=5388db70-e078-4295-88d5-c79af129ddf8
   Joint=20   CoordSys=GLOBAL   CoordType=Cartesian   XorR=-10   Y=10   Z=12   SpecialJt=No   GUID=cebd5a16-984c-4608-97ed-22e8245ac393
   Joint=21   CoordSys=GLOBAL   CoordType=Cartesian   XorR=-10   Y=10   Z=24   SpecialJt=No   GUID=0818174e-7876-4f2c-8d8b-c7b15996a8df
   Joint=22   CoordSys=GLOBAL   CoordType=Cartesian   XorR=-10   Y=30   Z=0   SpecialJt=No   GUID=538fdbae-5637-4c85-950a-f2e58c993513
   Joint=23   CoordSys=GLOBAL   CoordType=Cartesian   XorR=-10   Y=30   Z=12   SpecialJt=No   GUID=9a3d6b98-7614-4344-8ed3-f9c355e9fe30
   Joint=24   CoordSys=GLOBAL   CoordType=Cartesian   XorR=-10   Y=30   Z=24   SpecialJt=No   GUID=0a70c326-1b90-4664-b631-aa60a9d840b3
   Joint=25   CoordSys=GLOBAL   CoordType=Cartesian   XorR=10   Y=-30   Z=0   SpecialJt=No   GUID=beeff920-d88e-4444-b8ec-bf2cdeb5498d
   Joint=26   CoordSys=GLOBAL   CoordType=Cartesian   XorR=10   Y=-30   Z=12   SpecialJt=No   GUID=80ee26b2-e133-435a-bf56-9b889cdd23be
   Joint=27   CoordSys=GLOBAL   CoordType=Cartesian   XorR=10   Y=-30   Z=24   SpecialJt=No   GUID=33468b42-3287-4e51-97c0-705bc4bb620e
   Joint=28   CoordSys=GLOBAL   CoordType=Cartesian   XorR=10   Y=-10   Z=0   SpecialJt=No   GUID=a02787ab-6848-4a21-aa3e-52e328bf3e96
   Joint=29   CoordSys=GLOBAL   CoordType=Cartesian   XorR=10   Y=-10   Z=12   SpecialJt=No   GUID=981206fb-e72f-459e-87d7-27b0e5be48c8
   Joint=30   CoordSys=GLOBAL   CoordType=Cartesian   XorR=10   Y=-10   Z=24   SpecialJt=No   GUID=687701c1-9396-4f09-be54-89e2fe347194
   Joint=31   CoordSys=GLOBAL   CoordType=Cartesian   XorR=10   Y=10   Z=0   SpecialJt=No   GUID=7b1b535f-357b-4cfa-8f9b-aa7e511dd3ef
   Joint=32   CoordSys=GLOBAL   CoordType=Cartesian   XorR=10   Y=10   Z=12   SpecialJt=No   GUID=117c00c8-bfcd-4ef1-a5f1-3b05f62217f9
   Joint=33   CoordSys=GLOBAL   CoordType=Cartesian   XorR=10   Y=10   Z=24   SpecialJt=No   GUID=83bbb562-19e2-4ae1-806c-b18e8a8a1d95
   Joint=34   CoordSys=GLOBAL   CoordType=Cartesian   XorR=10   Y=30   Z=0   SpecialJt=No   GUID=58158414-3c29-47ff-9069-93cf4a19536e
   Joint=35   CoordSys=GLOBAL   CoordType=Cartesian   XorR=10   Y=30   Z=12   SpecialJt=No   GUID=d70906bb-401b-45cb-b5af-923f8bc6f322
   Joint=36   CoordSys=GLOBAL   CoordType=Cartesian   XorR=10   Y=30   Z=24   SpecialJt=No   GUID=8974b428-6609-4466-bc40-65f0d2cef5ad
   Joint=37   CoordSys=GLOBAL   CoordType=Cartesian   XorR=30   Y=-30   Z=0   SpecialJt=No   GUID=65ae75d7-98c8-4db7-83a0-3a72f35fd43f
   Joint=38   CoordSys=GLOBAL   CoordType=Cartesian   XorR=30   Y=-30   Z=12   SpecialJt=No   GUID=d8140adf-01b6-4dd9-b349-7787c193f706
   Joint=39   CoordSys=GLOBAL   CoordType=Cartesian   XorR=30   Y=-30   Z=24   SpecialJt=No   GUID=b3104efa-a169-457f-bf7e-c40b4f8a48c3
   Joint=40   CoordSys=GLOBAL   CoordType=Cartesian   XorR=30   Y=-10   Z=0   SpecialJt=No   GUID=61078223-56a2-45fd-beb7-88ee1cf63c2c
   Joint=41   CoordSys=GLOBAL   CoordType=Cartesian   XorR=30   Y=-10   Z=12   SpecialJt=No   GUID=097e5ce6-11a3-4256-a2d1-0a81cf53a0e8
   Joint=42   CoordSys=GLOBAL   CoordType=Cartesian   XorR=30   Y=-10   Z=24   SpecialJt=No   GUID=0be4ea7e-24bf-40a5-9f2f-dd454c47c95f
   Joint=43   CoordSys=GLOBAL   CoordType=Cartesian   XorR=30   Y=10   Z=0   SpecialJt=No   GUID=b524a648-6936-4d47-94f4-ae4da4b7cf6c
   Joint=44   CoordSys=GLOBAL   CoordType=Cartesian   XorR=30   Y=10   Z=12   SpecialJt=No   GUID=411126c7-8832-4311-b97d-ca0651580da5
   Joint=45   CoordSys=GLOBAL   CoordType=Cartesian   XorR=30   Y=10   Z=24   SpecialJt=No   GUID=f98c442b-a1e5-4131-ba46-7f0199bce0cb
   Joint=46   CoordSys=GLOBAL   CoordType=Cartesian   XorR=30   Y=30   Z=0   SpecialJt=No   GUID=3db81be1-d7ca-40b4-8cc4-ffb12fc81d33
   Joint=47   CoordSys=GLOBAL   CoordType=Cartesian   XorR=30   Y=30   Z=12   SpecialJt=No   GUID=f86c08f5-668b-4a04-9db2-21b0f2924c9d
   Joint=48   CoordSys=GLOBAL   CoordType=Cartesian   XorR=30   Y=30   Z=24   SpecialJt=No   GUID=ac5b6908-0679-44e9-a8af-30641909ede4
 
TABLE:  "JOINT LOADS - FORCE"
   Joint=3   LoadPat=TOP_LOAD   CoordSys=GLOBAL   F1=60   F2=0   F3=0   M1=0   M2=0   M3=0   GUID=596aa9b0-236d-4b53-9a24-1d48f67ac6b5
   Joint=3   LoadPat=TOP_LOAD   CoordSys=GLOBAL   F1=0   F2=90   F3=0   M1=0   M2=0   M3=0   GUID=443a9f09-8311-48bd-9c18-401b20e9e3d3
   Joint=6   LoadPat=TOP_LOAD   CoordSys=GLOBAL   F1=60   F2=0   F3=0   M1=0   M2=0   M3=0   GUID=38856c98-5273-4d3b-b984-6c23a6d4ce91
   Joint=9   LoadPat=TOP_LOAD   CoordSys=GLOBAL   F1=60   F2=0   F3=0   M1=0   M2=0   M3=0   GUID=b8ed0ea3-7152-4bef-a0cc-4f378b320fea
   Joint=12   LoadPat=TOP_LOAD   CoordSys=GLOBAL   F1=60   F2=0   F3=0   M1=0   M2=0   M3=0   GUID=218a2d38-b512-43ce-9ba6-e56a045b8790
   Joint=15   LoadPat=TOP_LOAD   CoordSys=GLOBAL   F1=0   F2=90   F3=0   M1=0   M2=0   M3=0   GUID=db8ae78f-876f-4ab3-9cda-0f65dc31b4ab
   Joint=27   LoadPat=TOP_LOAD   CoordSys=GLOBAL   F1=0   F2=90   F3=0   M1=0   M2=0   M3=0   GUID=7384a408-4064-45da-90fd-ae52e3959760
   Joint=39   LoadPat=TOP_LOAD   CoordSys=GLOBAL   F1=0   F2=90   F3=0   M1=0   M2=0   M3=0   GUID=dde2e478-4eea-42de-b9fe-57fbe15f3856
 
TABLE:  "JOINT PATTERN DEFINITIONS"
   Pattern=Default
 
TABLE:  "JOINT RESTRAINT ASSIGNMENTS"
   Joint=1   U1=Yes   U2=Yes   U3=Yes   R1=No   R2=No   R3=No
   Joint=4   U1=Yes   U2=Yes   U3=Yes   R1=No   R2=No   R3=No
   Joint=7   U1=Yes   U2=Yes   U3=Yes   R1=No   R2=No   R3=No
   Joint=10   U1=Yes   U2=Yes   U3=Yes   R1=No   R2=No   R3=No
   Joint=13   U1=Yes   U2=Yes   U3=Yes   R1=No   R2=No   R3=No
   Joint=16   U1=Yes   U2=Yes   U3=Yes   R1=No   R2=No   R3=No
   Joint=19   U1=Yes   U2=Yes   U3=Yes   R1=No   R2=No   R3=No
   Joint=22   U1=Yes   U2=Yes   U3=Yes   R1=No   R2=No   R3=No
   Joint=25   U1=Yes   U2=Yes   U3=Yes   R1=No   R2=No   R3=No
   Joint=28   U1=Yes   U2=Yes   U3=Yes   R1=No   R2=No   R3=No
   Joint=31   U1=Yes   U2=Yes   U3=Yes   R1=No   R2=No   R3=No
   Joint=34   U1=Yes   U2=Yes   U3=Yes   R1=No   R2=No   R3=No
   Joint=37   U1=Yes   U2=Yes   U3=Yes   R1=No   R2=No   R3=No
   Joint=40   U1=Yes   U2=Yes   U3=Yes   R1=No   R2=No   R3=No
   Joint=43   U1=Yes   U2=Yes   U3=Yes   R1=No   R2=No   R3=No
   Joint=46   U1=Yes   U2=Yes   U3=Yes   R1=No   R2=No   R3=No
 
TABLE:  "LOAD CASE DEFINITIONS"
   Case=DEAD   Type=LinStatic   InitialCond=Zero   DesTypeOpt="Prog Det"   DesignType=Dead   DesActOpt="Prog Det"   DesignAct=Non-Composite   AutoType=None   RunCase=Yes   GUID=eeb6e1f4-079f-45a9-8c64-fa9bbdc33b3e
   Case=MODAL   Type=LinModal   InitialCond=Zero   DesTypeOpt="Prog Det"   DesignType=Other   DesActOpt="Prog Det"   DesignAct=Other   AutoType=None   RunCase=Yes   GUID=d5d7f760-093b-434b-91f6-b70055c29d81
   Case=TOP_LOAD   Type=LinStatic   InitialCond=Zero   DesTypeOpt="Prog Det"   DesignType=Other   DesActOpt="Prog Det"   DesignAct=Other   AutoType=None   RunCase=Yes   GUID=3eb65138-00fe-46ef-9fa5-746472ca3aff
 
TABLE:  "LOAD PATTERN DEFINITIONS"
   LoadPat=DEAD   DesignType=Dead   SelfWtMult=1   GUID=c6e45b5f-6db7-461b-ada8-fdb7d5cf4e56
   LoadPat=TOP_LOAD   DesignType=Other   SelfWtMult=0   GUID=39bfab11-83e8-4d93-99aa-0e952d742c6a
 
TABLE:  "MASS SOURCE"
   MassSource=MSSSRC1   Elements=Yes   Masses=Yes   Loads=No   IsDefault=Yes
 
TABLE:  "MATERIAL PROPERTIES 01 - GENERAL"
   Material=4000Psi   Type=Concrete   Grade="f'c 4000 psi"   SymType=Isotropic   TempDepend=No   Color=Yellow   GUID=6658777f-7407-426b-a26a-d6339d6036ab   Notes="Customary f'c 4000 psi 11/25/2025 2:54:22 AM"
   Material=A992Fy50   Type=Steel   Grade="Grade 50"   SymType=Isotropic   TempDepend=No   Color=Magenta   GUID=d065061a-2b44-4a5d-ab19-9f24d22af317   Notes="ASTM A992 Grade 50 11/25/2025 2:54:22 AM"
 
TABLE:  "MATERIAL PROPERTIES 02 - BASIC MECHANICAL PROPERTIES"
   Material=4000Psi   UnitWeight=0.15000000000768005   UnitMass=0.004662142315545601   E1=519119.49600000004   G12=216299.79000000004   U12=0.2   A1=5.5E-06
   Material=A992Fy50   UnitWeight=0.49000000000000044   UnitMass=0.01522966490075077   E1=4176000   G12=1606153.846153846   U12=0.3   A1=6.5E-06
 
TABLE:  "MATERIAL PROPERTIES 03A - STEEL DATA"
   Material=A992Fy50   Fy=7200   Fu=9360   EffFy=7920   EffFu=10296   SSCurveOpt=Simple   SSHysType=Kinematic   SHard=0.015   SMax=0.11   SRup=0.17   FinalSlope=-0.1   CoupModType="Von Mises"
 
TABLE:  "MATERIAL PROPERTIES 03B - CONCRETE DATA"
   Material=4000Psi   Fc=576   eFc=576   LtWtConc=No   SSCurveOpt=Mander   SSHysType=Takeda   SFc=0.00221914   SCap=0.005   FinalSlope=-0.1   FAngle=0   DAngle=0   CoupModType="Modified Darwin-Pecknold"
 
TABLE:  "MATERIAL PROPERTIES 03J - COUPLED NONLINEAR VON MISES DATA"
   Material=A992Fy50   YieldStress=7920   LinIsoHard=No   LinKinHard=No   NLIsoSaHard=No
 
TABLE:  "MATERIAL PROPERTIES 06 - DAMPING PARAMETERS"
   Material=4000Psi   ModalRatio=0   VisMass=0   VisStiff=0   HysMass=0   HysStiff=0
   Material=A992Fy50   ModalRatio=0   VisMass=0   VisStiff=0   HysMass=0   HysStiff=0
 
TABLE:  "MATERIAL PROPERTIES 09 - ACCEPTANCE CRITERIA"
   Material=4000Psi   IOTens=0.01   LSTens=0.02   CPTens=0.05   IOComp=-0.003   LSComp=-0.006   CPComp=-0.015   IgnoreTens=Yes
   Material=A992Fy50   IOTens=0.01   LSTens=0.02   CPTens=0.05   IOComp=-0.005   LSComp=-0.01   CPComp=-0.02
 
TABLE:  "OPTIONS - COLORS - DISPLAY"
   DeviceType=Screen   Points=Blue   LinesFrame=Blue   LinesFrmDL=Blue   LinesCable=Green   LinesTendon=Green   SpringLinks=Green   Restraints=Green   Releases=Green   Axes=Cyan   Text=Black   ShadowLines=Gray8Dark   GuideLines=Gray8Dark _
        Highlight=Red   Selection=10504778   AreaFillBot=Red   AreaFillTop=16744703   AreaFillSd=Red   AreaEdge=DarkRed   SolidF1=Red   SolidF2=Blue   SolidF3=Green   SolidF4=Yellow   SolidF5=White   SolidF6=Cyan   SolidEdge=DarkRed _
        Floor=Gray4   Background=White   BGLowLeft=White   BGLowRight=White   BGUpRight=White   Darkness=0
   DeviceType=Printer   Points=Gray8Dark   LinesFrame=Black   LinesFrmDL=Gray4   LinesCable=Black   LinesTendon=Black   SpringLinks=Gray8Dark   Restraints=Gray8Dark   Releases=Gray4   Axes=Black   Text=Black   ShadowLines=Gray4 _
        GuideLines=Gray4   Highlight=Black   Selection=Black   AreaFillBot=Gray4   AreaFillTop=Gray8Dark   AreaFillSd=Gray4   AreaEdge=Black   SolidF1=Gray1Light   SolidF2=Gray2   SolidF3=Gray3   SolidF4=Gray4   SolidF5=Gray5 _
        SolidF6=Gray6   SolidEdge=Black   Floor=Gray4   Background=White   BGLowLeft=White   BGLowRight=White   BGUpRight=White   Darkness=0.5
   DeviceType="Color Printer"   Points=Blue   LinesFrame=Blue   LinesFrmDL=Blue   LinesCable=Green   LinesTendon=Green   SpringLinks=Green   Restraints=Green   Releases=Green   Axes=Cyan   Text=Black   ShadowLines=Gray8Dark _
        GuideLines=Gray8Dark   Highlight=Red   Selection=10504778   AreaFillBot=Red   AreaFillTop=16744703   AreaFillSd=Red   AreaEdge=DarkRed   SolidF1=Red   SolidF2=Blue   SolidF3=Green   SolidF4=Yellow   SolidF5=White   SolidF6=Cyan _
        SolidEdge=DarkRed   Floor=Gray4   Background=White   BGLowLeft=White   BGLowRight=White   BGUpRight=White   Darkness=0.5
 
TABLE:  "OPTIONS - COLORS - OUTPUT"
   DeviceType=Screen   Contour1=13107400   Contour2=6553828   Contour3=Red   Contour4=16639   Contour5=Orange   Contour6=43775   Contour7=54527   Contour8=Yellow   Contour9=65408   Contour10=Green   Contour11=8453888   Contour12=Cyan _
        Contour13=16755200   Contour14=16733440   Contour15=Blue   Transpare=0   Ratio1=Cyan   Ratio2=Green   Ratio3=Yellow   Ratio4=Orange   Ratio5=Red   RatioNotD=Gray4   RatioNotC=Red   RatioVal1=0.5   RatioVal2=0.7   RatioVal3=0.9 _
        RatioVal4=1   DFillPos=Blue   DFillNeg=Red   DFillRPos=9498256   DFillRNeg=9498256
   DeviceType=Printer   Contour1=Black   Contour2=3158064   Contour3=4210752   Contour4=5263440   Contour5=6316128   Contour6=7368816   Contour7=Gray8Dark   Contour8=Gray7   Contour9=Gray6   Contour10=Gray5   Contour11=Gray4 _
        Contour12=Gray3   Contour13=Gray2   Contour14=Gray1Light   Contour15=White   Transpare=0   Ratio1=Gray2   Ratio2=Gray4   Ratio3=Gray8Dark   Ratio4=4210752   Ratio5=Black   RatioNotD=Gray4   RatioNotC=Black   RatioVal1=0.5 _
        RatioVal2=0.7   RatioVal3=0.9   RatioVal4=1   DFillPos=Gray8Dark   DFillNeg=Gray8Dark   DFillRPos=4210752   DFillRNeg=4210752
   DeviceType="Color Printer"   Contour1=13107400   Contour2=6553828   Contour3=Red   Contour4=16639   Contour5=Orange   Contour6=43775   Contour7=54527   Contour8=Yellow   Contour9=65408   Contour10=Green   Contour11=8453888 _
        Contour12=Cyan   Contour13=16755200   Contour14=16733440   Contour15=Blue   Transpare=0   Ratio1=Cyan   Ratio2=Green   Ratio3=Yellow   Ratio4=Orange   Ratio5=Red   RatioNotD=Gray4   RatioNotC=Red   RatioVal1=0.5   RatioVal2=0.7 _
        RatioVal3=0.9   RatioVal4=1   DFillPos=Blue   DFillNeg=Red   DFillRPos=9498256   DFillRNeg=9498256
 
TABLE:  "PREFERENCES - ALUMINUM DESIGN - AA 2015"
   THDesign=Envelopes   SRatioLimit=1   Provision=LRFD   LatFact=1.3333333333333333   UseLatFact=No   Bridge=No   AMethod="Direct Analysis"   SOMethod="General 2nd Order"   SRMethod="Tau-b Fixed"   PhiTy=0.9   PhiTr=0.75   PhiC=0.9 _
        PhiBo=0.9   PhiBr=0.75   PhiVo=0.9   PhiVr=0.75
 
TABLE:  "PREFERENCES - COLD FORMED DESIGN - AISI-16"
   THDesign=Envelopes   FrameType="Braced Frame"   SRatioLimit=1   SOMethod="General 2nd Order"   Provision=LRFD   LatFact=1.3333333333333333   UseLatFact=No   PhiTy=0.9   PhiTr=0.75   PhiC=0.85   PhiB=0.9   PhiBPipe=0.95   PhiV=0.95
 
TABLE:  "PREFERENCES - CONCRETE DESIGN - ACI 318-19"
   THDesign=Envelopes   NumCurves=24   NumPoints=11   MinEccen=Yes   BCCDesign=Yes   IgnoreBPu=Yes   CTorsion=Yes   PatLLF=0.75   UFLimit=0.95   SeisCat=D   Rho=1   Sds=0.5   PhiT=0.9   PhiCTied=0.65   PhiCSpiral=0.75   PhiV=0.75 _
        PhiVSeismic=0.6   PhiVJoint=0.85   TanTheta=1
 
TABLE:  "PREFERENCES - CONCRETE SHELL DESIGN - EUROCODE 2-2004"
   Country="CEN Default"   GammaS=1.15   GammaC=1.5   AlphaCC=1   AlphaCT=1   CrackCond="Program Determined"   ShrDesMet="Method 1"   CotTheta=1   AddTenForce=Yes
 
TABLE:  "PREFERENCES - DIMENSIONAL"
   MergeTol=0.008333333333333333   FineGrid=1   Nudge=1   SelectTol=3   SnapTol=12   SLineThick=2   PLineThick=4   MaxFont=12   MinFont=6   AutoZoom=10   ShrinkFact=70   TextFileLen=240
 
TABLE:  "PREFERENCES - STEEL DESIGN - AISC 360-16"
   THDesign=Envelopes   FrameType=SMF   PatLLF=0.75   SRatioLimit=0.95   MaxIter=1   SDC=D   SeisCode=No   SeisLoad=No   ImpFactor=1   SystemRho=1   SystemSds=0.5   SystemR=8   SystemCd=5.5   Omega0=3   Provision=LRFD _
        AMethod="Direct Analysis"   SOMethod="General 2nd Order"   SRMethod="Tau-b Fixed"   NLCoeff=0.002   PhiB=0.9   PhiC=0.9   PhiTY=0.9   PhiTF=0.75   PhiV=0.9   PhiVRolledI=1   PhiVT=0.9   PlugWeld=Yes   HSSWelding=ERW   HSSReduceT=No _
        CheckDefl=No   DLRat=120   SDLAndLLRat=120   LLRat=360   TotalRat=240   NetRat=240
 
TABLE:  "PROGRAM CONTROL"
   ProgramName=SAP2000   Version=26.3.0   CurrUnits="Kip, ft, F"   SteelCode="AISC 360-16"   ConcCode="ACI 318-19"   AlumCode="AA 2015"   ColdCode=AISI-16   ConcSCode="Eurocode 2-2004"   RegenHinge=Yes
 
TABLE:  "PROJECT INFORMATION"
   Item="Company Name"
   Item="Client Name"
   Item="Project Name"
   Item="Project Number"
   Item="Model Name"
   Item="Model Description"
   Item="Revision Number"
   Item="Frame Type"
   Item=Engineer
   Item=Checker
   Item=Supervisor
   Item="Issue Code"
   Item="Design Code"
 
TABLE:  "REBAR SIZES"
   RebarID=#2   Area=0.00034722222222222224   Diameter=0.020833333333333332
   RebarID=#3   Area=0.0007638888847496774   Diameter=0.03125
   RebarID=#4   Area=0.001388888909584946   Diameter=0.041666666666666664
   RebarID=#5   Area=0.0021527777943346235   Diameter=0.05208333333333333
   RebarID=#6   Area=0.0030555555389987095   Diameter=0.0625
   RebarID=#7   Area=0.004166666832235124   Diameter=0.07291666666666666
   RebarID=#8   Area=0.005486111260122723   Diameter=0.08333333333333333
   RebarID=#9   Area=0.006944444444444444   Diameter=0.09400000174840291
   RebarID=#10   Area=0.008819444311989678   Diameter=0.10583333174387613
   RebarID=#11   Area=0.010833332935969034   Diameter=0.1174999972184499
   RebarID=#14   Area=0.015625   Diameter=0.14108332991600037
   RebarID=#18   Area=0.027777777777777776   Diameter=0.1880833307902018
   RebarID=10M   Area=0.0010763910702533191   Diameter=0.037073493003845215
   RebarID=15M   Area=0.0021527821405066382   Diameter=0.05249343812465668
   RebarID=20M   Area=0.0032291733142402433   Diameter=0.06397637724876404
   RebarID=25M   Area=0.0053819554547468815   Diameter=0.08267717063426971
   RebarID=30M   Area=0.007534737388292948   Diameter=0.09809711575508118
   RebarID=35M   Area=0.010763910909493763   Diameter=0.1171259880065918
   RebarID=45M   Area=0.01614586677816179   Diameter=0.14337270458539325
   RebarID=55M   Area=0.026909776859813266   Diameter=0.1850393811861674
   RebarID=6d   Area=0.00030461866925987933   Diameter=0.019685039917627968
   RebarID=8d   Area=0.0005414246891935666   Diameter=0.02624671906232834
   RebarID=10d   Area=0.0008449669823878341   Diameter=0.0328083982070287
   RebarID=12d   Area=0.0012163219766484366   Diameter=0.039370079835255936
   RebarID=14d   Area=0.0016576423206263117   Diameter=0.04593176146348317
   RebarID=16d   Area=0.002163546159863472   Diameter=0.05249343812465668
   RebarID=20d   Area=0.0033798679295513365   Diameter=0.0656167964140574
   RebarID=25d   Area=0.005285080108377668   Diameter=0.08202099800109863
   RebarID=26d   Area=0.005715636743439568   Diameter=0.08530183633168538
   RebarID=28d   Area=0.006630569282505247   Diameter=0.09186352292696634
   RebarID=N12   Area=0.0012163219766484366   Diameter=0.039370079835255936
   RebarID=N16   Area=0.002163546159863472   Diameter=0.05249343812465668
   RebarID=N20   Area=0.0033798679295513365   Diameter=0.0656167964140574
   RebarID=N24   Area=0.0048652879065937465   Diameter=0.07874015967051187
   RebarID=N28   Area=0.006630569282505247   Diameter=0.09186352292696634
   RebarID=N32   Area=0.008654184639453888   Diameter=0.10498687624931335
   RebarID=N36   Area=0.01097918881310357   Diameter=0.11811023950576782
 
END TABLE DATA
