File C:\Users\mnwpa\OneDrive\Documents\GitHub\StructGNN\3DFrame.$2k was saved on m/d/yy at h:mm:ss
 
TABLE:  "ACTIVE DEGREES OF FREEDOM"
   UX=Yes   UY=Yes   UZ=Yes   RX=Yes   RY=Yes   RZ=Yes
 
TABLE:  "ANALYSIS OPTIONS"
   Solver=Advanced   SolverProc=Auto   Force32Bit=No   StiffCase=None   GeomMod=None   HingeOpt="In Elements"   NumAThreads=0   MaxFileSize=0   NumDThreads=0   NumRThreads=0   UseMMFiles="Program Determined"   AllowDiff=No
 
TABLE:  "AUTO WAVE 3 - WAVE CHARACTERISTICS - GENERAL"
   WaveChar=Default   WaveType="From Theory"   KinFactor=1   SWaterDepth=150   WaveHeight=60   WavePeriod=12   WaveTheory=Linear
 
TABLE:  "CASE - MODAL 1 - GENERAL"
   Case=MODAL   ModeType=Eigen   MaxNumModes=12   MinNumModes=1   EigenShift=0   EigenCutoff=0   EigenTol=1E-09   AutoShift=Yes
 
TABLE:  "CASE - STATIC 1 - LOAD ASSIGNMENTS"
   Case=DEAD   LoadType="Load pattern"   LoadName=DEAD   LoadSF=1
   Case=TOP_LOAD   LoadType="Load pattern"   LoadName=TOP_LOAD   LoadSF=1
 
TABLE:  "CONNECTIVITY - FRAME"
   Frame=1   JointI=1   JointJ=2   IsCurved=No   GUID=47b98f20-1821-4946-b2c5-51bafe21e5be
   Frame=2   JointI=2   JointJ=3   IsCurved=No   GUID=f22a547a-7f50-4443-9ff2-6173274c325c
   Frame=3   JointI=4   JointJ=5   IsCurved=No   GUID=36c1c295-07fd-4280-8eca-3e92f6bcf161
   Frame=4   JointI=5   JointJ=6   IsCurved=No   GUID=59730c62-758d-4387-bde1-3859d4e8651d
   Frame=5   JointI=7   JointJ=8   IsCurved=No   GUID=7f1b8b1e-e63a-485c-97e9-cc338f1a2c9a
   Frame=6   JointI=8   JointJ=9   IsCurved=No   GUID=7812831e-7dbe-47d1-bb2a-010c638a78bf
   Frame=7   JointI=10   JointJ=11   IsCurved=No   GUID=97517edf-852c-4692-8dc3-098eb868c650
   Frame=8   JointI=11   JointJ=12   IsCurved=No   GUID=cda723b6-e538-4e54-a469-965ff8ab74e3
   Frame=9   JointI=13   JointJ=14   IsCurved=No   GUID=ccd022d7-50fa-4661-9a70-39817d5971fb
   Frame=10   JointI=14   JointJ=15   IsCurved=No   GUID=66ebc426-198e-4203-a066-138ce4a85f0f
   Frame=11   JointI=16   JointJ=17   IsCurved=No   GUID=10ff9a63-7e23-46f8-9886-16133cd4cb56
   Frame=12   JointI=17   JointJ=18   IsCurved=No   GUID=d1c20b4d-4684-4bb5-a2f7-9e41808e7a82
   Frame=13   JointI=19   JointJ=20   IsCurved=No   GUID=caf0887a-d67f-4268-b4f5-360bdf10afc1
   Frame=14   JointI=20   JointJ=21   IsCurved=No   GUID=1ca241eb-c61d-44c5-94b6-9fdb89e8acff
   Frame=15   JointI=22   JointJ=23   IsCurved=No   GUID=f81fa1f5-773e-4f05-bca1-9df70618bca7
   Frame=16   JointI=23   JointJ=24   IsCurved=No   GUID=1e0bee4a-c5da-41d9-897e-2aa2316f179d
   Frame=17   JointI=25   JointJ=26   IsCurved=No   GUID=8301cf3c-1343-4381-8fe1-48fbd4dc5189
   Frame=18   JointI=26   JointJ=27   IsCurved=No   GUID=57ed45f1-5148-48e9-895c-8a7b8c1d22af
   Frame=19   JointI=28   JointJ=29   IsCurved=No   GUID=fecb66a8-4e0d-48b3-955c-4749be7b0c43
   Frame=20   JointI=29   JointJ=30   IsCurved=No   GUID=4302cbef-9be6-44e8-b808-db0e09ab0a3f
   Frame=21   JointI=31   JointJ=32   IsCurved=No   GUID=b08509b2-1514-4496-b1f5-86d5221ea804
   Frame=22   JointI=32   JointJ=33   IsCurved=No   GUID=88c7160d-005b-4eae-920e-9078e76506c7
   Frame=23   JointI=34   JointJ=35   IsCurved=No   GUID=35b4c6a8-939b-498d-b1a7-f71942c3e4f1
   Frame=24   JointI=35   JointJ=36   IsCurved=No   GUID=278771f5-8893-423a-902b-7e9b1b0713a0
   Frame=25   JointI=37   JointJ=38   IsCurved=No   GUID=07d56d35-6f7a-4ea8-9979-bb7c628f540a
   Frame=26   JointI=38   JointJ=39   IsCurved=No   GUID=94bd6811-b1fd-4166-8f67-9f71c6ec1113
   Frame=27   JointI=40   JointJ=41   IsCurved=No   GUID=da7bbe9b-6198-4eaa-bafc-9688eaa0500a
   Frame=28   JointI=41   JointJ=42   IsCurved=No   GUID=9ae0a2d9-7dcf-417c-8b91-1b5b6b7b04db
   Frame=29   JointI=43   JointJ=44   IsCurved=No   GUID=0c64a043-b3e8-4a6f-9077-ff9cf6736eed
   Frame=30   JointI=44   JointJ=45   IsCurved=No   GUID=17c8ad36-3e71-4f02-bb9e-509a12d07169
   Frame=31   JointI=46   JointJ=47   IsCurved=No   GUID=68a562ae-0752-485e-bcdb-3b7e241fd62c
   Frame=32   JointI=47   JointJ=48   IsCurved=No   GUID=ed0ed2a3-d57f-4420-93dc-0e9603176c6f
   Frame=33   JointI=2   JointJ=14   IsCurved=No   GUID=76fd8653-f188-488c-8546-6e8929aac95b
   Frame=34   JointI=3   JointJ=15   IsCurved=No   GUID=90a80daf-641c-4d18-8c93-b452f82e3484
   Frame=35   JointI=14   JointJ=26   IsCurved=No   GUID=7a44495e-00fc-4910-9ed0-96bf9b86968f
   Frame=36   JointI=15   JointJ=27   IsCurved=No   GUID=2e73fa68-1a2c-4a12-a462-834dfa88af63
   Frame=37   JointI=26   JointJ=38   IsCurved=No   GUID=0990f7cc-c8a8-40bf-b57e-9aef72fdd16c
   Frame=38   JointI=27   JointJ=39   IsCurved=No   GUID=776c57ab-70c7-4370-a00e-408cff5de49e
   Frame=39   JointI=5   JointJ=17   IsCurved=No   GUID=05ba2bd3-f269-4db5-ad7e-94a8b2053132
   Frame=40   JointI=6   JointJ=18   IsCurved=No   GUID=b5a3a7c6-ba3a-403c-bd46-931477c4b679
   Frame=41   JointI=17   JointJ=29   IsCurved=No   GUID=995971d8-9808-4fd0-9d4b-7f39b60b2ee4
   Frame=42   JointI=18   JointJ=30   IsCurved=No   GUID=2b82b2ac-af5a-47a0-b355-95c434c30030
   Frame=43   JointI=29   JointJ=41   IsCurved=No   GUID=0802e984-32f8-4247-a02e-b1565f2e3580
   Frame=44   JointI=30   JointJ=42   IsCurved=No   GUID=e2b113d2-ce09-4c2a-94b9-741d2b690f4b
   Frame=45   JointI=8   JointJ=20   IsCurved=No   GUID=9f8a98d3-1cab-4444-9952-8a8cacfc807b
   Frame=46   JointI=9   JointJ=21   IsCurved=No   GUID=59c824c3-8bf1-4f94-b60f-92f8c4e75b2f
   Frame=47   JointI=20   JointJ=32   IsCurved=No   GUID=cce69ccd-5ec0-461f-a4d5-add7d41f4e16
   Frame=48   JointI=21   JointJ=33   IsCurved=No   GUID=e08179ea-c643-495e-b8f1-d671fe1bfc65
   Frame=49   JointI=32   JointJ=44   IsCurved=No   GUID=b3a6d000-c72b-4312-83dd-f5be86898b36
   Frame=50   JointI=33   JointJ=45   IsCurved=No   GUID=7939ce07-48c6-421d-8f0b-6ebeb340838f
   Frame=51   JointI=11   JointJ=23   IsCurved=No   GUID=5d01c573-e2fd-43c0-913b-a0cc7be4b038
   Frame=52   JointI=12   JointJ=24   IsCurved=No   GUID=4e7c6108-873c-40dd-8bce-770831d2045d
   Frame=53   JointI=23   JointJ=35   IsCurved=No   GUID=08337488-d678-4567-8188-fcd830e4bbf5
   Frame=54   JointI=24   JointJ=36   IsCurved=No   GUID=b2a3a6d3-3850-4719-9c52-287bb06fd8a2
   Frame=55   JointI=35   JointJ=47   IsCurved=No   GUID=ee983df0-75f8-4158-8b95-9e2ba8a8333d
   Frame=56   JointI=36   JointJ=48   IsCurved=No   GUID=93a3a163-7698-4738-ae80-810e7d5a856c
   Frame=57   JointI=2   JointJ=5   IsCurved=No   GUID=4cbeadb8-85ff-41bc-9a1a-5af11c48d8bf
   Frame=58   JointI=3   JointJ=6   IsCurved=No   GUID=576f9311-3aff-474f-92bd-f90c334b43f5
   Frame=59   JointI=5   JointJ=8   IsCurved=No   GUID=cfff2642-cdb9-4811-8b37-cbf76b856a55
   Frame=60   JointI=6   JointJ=9   IsCurved=No   GUID=ec24edf3-afef-4fd0-971b-8e4e4ed45e08
   Frame=61   JointI=8   JointJ=11   IsCurved=No   GUID=705d2609-01bb-4226-8bd0-0e26c9441e3b
   Frame=62   JointI=9   JointJ=12   IsCurved=No   GUID=7bb4e83a-89b2-45e0-b853-5b01e4e7290c
   Frame=63   JointI=14   JointJ=17   IsCurved=No   GUID=f12be5ad-aa4f-44e3-aec6-a9f9220dc6b8
   Frame=64   JointI=15   JointJ=18   IsCurved=No   GUID=41c14215-a601-4da1-922b-4fe8fd9daf6a
   Frame=65   JointI=17   JointJ=20   IsCurved=No   GUID=5eff91a7-2b6c-4b3a-8894-5642b8961786
   Frame=66   JointI=18   JointJ=21   IsCurved=No   GUID=b37272f6-76fc-4b0e-9cd9-2d36dd0e1236
   Frame=67   JointI=20   JointJ=23   IsCurved=No   GUID=500eee2c-2a3d-4b48-9f57-4889ce92eff6
   Frame=68   JointI=21   JointJ=24   IsCurved=No   GUID=b1947198-0c81-4806-8a97-f6d63b5ba00f
   Frame=69   JointI=26   JointJ=29   IsCurved=No   GUID=c522b5d0-8de8-4931-af3b-644039289260
   Frame=70   JointI=27   JointJ=30   IsCurved=No   GUID=9c942514-6066-4be5-a6bd-714bf83ba8a6
   Frame=71   JointI=29   JointJ=32   IsCurved=No   GUID=24307f4a-ef65-4f88-96ea-db4d5b2b64fe
   Frame=72   JointI=30   JointJ=33   IsCurved=No   GUID=37aba27c-78ff-4f82-9333-0f0d7af41385
   Frame=73   JointI=32   JointJ=35   IsCurved=No   GUID=721fbd0d-dd0d-45f8-83db-d9da8314a155
   Frame=74   JointI=33   JointJ=36   IsCurved=No   GUID=6862f173-f7fd-49d5-91e9-0e8e28321653
   Frame=75   JointI=38   JointJ=41   IsCurved=No   GUID=4843c169-402a-4108-a8c6-69fdf16f1ab1
   Frame=76   JointI=39   JointJ=42   IsCurved=No   GUID=0a7f9cc4-6dca-4f29-a8d1-d357276e29c6
   Frame=77   JointI=41   JointJ=44   IsCurved=No   GUID=f472a70c-8e4c-4652-931c-da499196b3a4
   Frame=78   JointI=42   JointJ=45   IsCurved=No   GUID=7f43b2c2-4b99-46c1-8852-93d2b2657627
   Frame=79   JointI=44   JointJ=47   IsCurved=No   GUID=5da045b0-45b2-4995-b419-45ac3fb35c9b
   Frame=80   JointI=45   JointJ=48   IsCurved=No   GUID=41afe2e1-4301-4a22-b526-34d7bc85ace2
 
TABLE:  "COORDINATE SYSTEMS"
   Name=GLOBAL   Type=Cartesian   X=0   Y=0   Z=0   AboutZ=0   AboutY=0   AboutX=0
 
TABLE:  "DATABASE DOCUMENTATION"
 
TABLE:  "DATABASE FORMAT TYPES"
   UnitsCurr=Yes   OverrideE=No
 
TABLE:  "FRAME AUTO MESH ASSIGNMENTS"
   Frame=1   AutoMesh=Yes   AtJoints=Yes   AtFrames=No   NumSegments=0   MaxLength=0   MaxDegrees=0
   Frame=2   AutoMesh=Yes   AtJoints=Yes   AtFrames=No   NumSegments=0   MaxLength=0   MaxDegrees=0
   Frame=3   AutoMesh=Yes   AtJoints=Yes   AtFrames=No   NumSegments=0   MaxLength=0   MaxDegrees=0
   Frame=4   AutoMesh=Yes   AtJoints=Yes   AtFrames=No   NumSegments=0   MaxLength=0   MaxDegrees=0
   Frame=5   AutoMesh=Yes   AtJoints=Yes   AtFrames=No   NumSegments=0   MaxLength=0   MaxDegrees=0
   Frame=6   AutoMesh=Yes   AtJoints=Yes   AtFrames=No   NumSegments=0   MaxLength=0   MaxDegrees=0
   Frame=7   AutoMesh=Yes   AtJoints=Yes   AtFrames=No   NumSegments=0   MaxLength=0   MaxDegrees=0
   Frame=8   AutoMesh=Yes   AtJoints=Yes   AtFrames=No   NumSegments=0   MaxLength=0   MaxDegrees=0
   Frame=9   AutoMesh=Yes   AtJoints=Yes   AtFrames=No   NumSegments=0   MaxLength=0   MaxDegrees=0
   Frame=10   AutoMesh=Yes   AtJoints=Yes   AtFrames=No   NumSegments=0   MaxLength=0   MaxDegrees=0
   Frame=11   AutoMesh=Yes   AtJoints=Yes   AtFrames=No   NumSegments=0   MaxLength=0   MaxDegrees=0
   Frame=12   AutoMesh=Yes   AtJoints=Yes   AtFrames=No   NumSegments=0   MaxLength=0   MaxDegrees=0
   Frame=13   AutoMesh=Yes   AtJoints=Yes   AtFrames=No   NumSegments=0   MaxLength=0   MaxDegrees=0
   Frame=14   AutoMesh=Yes   AtJoints=Yes   AtFrames=No   NumSegments=0   MaxLength=0   MaxDegrees=0
   Frame=15   AutoMesh=Yes   AtJoints=Yes   AtFrames=No   NumSegments=0   MaxLength=0   MaxDegrees=0
   Frame=16   AutoMesh=Yes   AtJoints=Yes   AtFrames=No   NumSegments=0   MaxLength=0   MaxDegrees=0
   Frame=17   AutoMesh=Yes   AtJoints=Yes   AtFrames=No   NumSegments=0   MaxLength=0   MaxDegrees=0
   Frame=18   AutoMesh=Yes   AtJoints=Yes   AtFrames=No   NumSegments=0   MaxLength=0   MaxDegrees=0
   Frame=19   AutoMesh=Yes   AtJoints=Yes   AtFrames=No   NumSegments=0   MaxLength=0   MaxDegrees=0
   Frame=20   AutoMesh=Yes   AtJoints=Yes   AtFrames=No   NumSegments=0   MaxLength=0   MaxDegrees=0
# ... 60 like lines cut
 
TABLE:  "FRAME DESIGN PROCEDURES"
   Frame=1   DesignProc="From Material"
   Frame=2   DesignProc="From Material"
   Frame=3   DesignProc="From Material"
   Frame=4   DesignProc="From Material"
   Frame=5   DesignProc="From Material"
   Frame=6   DesignProc="From Material"
   Frame=7   DesignProc="From Material"
   Frame=8   DesignProc="From Material"
   Frame=9   DesignProc="From Material"
   Frame=10   DesignProc="From Material"
   Frame=11   DesignProc="From Material"
   Frame=12   DesignProc="From Material"
   Frame=13   DesignProc="From Material"
   Frame=14   DesignProc="From Material"
   Frame=15   DesignProc="From Material"
   Frame=16   DesignProc="From Material"
   Frame=17   DesignProc="From Material"
   Frame=18   DesignProc="From Material"
   Frame=19   DesignProc="From Material"
   Frame=20   DesignProc="From Material"
# ... 60 like lines cut
 
TABLE:  "FRAME LOAD TRANSFER OPTIONS"
   Frame=1   Transfer=Yes
   Frame=2   Transfer=Yes
   Frame=3   Transfer=Yes
   Frame=4   Transfer=Yes
   Frame=5   Transfer=Yes
   Frame=6   Transfer=Yes
   Frame=7   Transfer=Yes
   Frame=8   Transfer=Yes
   Frame=9   Transfer=Yes
   Frame=10   Transfer=Yes
   Frame=11   Transfer=Yes
   Frame=12   Transfer=Yes
   Frame=13   Transfer=Yes
   Frame=14   Transfer=Yes
   Frame=15   Transfer=Yes
   Frame=16   Transfer=Yes
   Frame=17   Transfer=Yes
   Frame=18   Transfer=Yes
   Frame=19   Transfer=Yes
   Frame=20   Transfer=Yes
# ... 60 like lines cut
 
TABLE:  "FRAME OUTPUT STATION ASSIGNMENTS"
   Frame=1   StationType=MinNumSta   MinNumSta=3   AddAtElmInt=Yes   AddAtPtLoad=Yes
   Frame=2   StationType=MinNumSta   MinNumSta=3   AddAtElmInt=Yes   AddAtPtLoad=Yes
   Frame=3   StationType=MinNumSta   MinNumSta=3   AddAtElmInt=Yes   AddAtPtLoad=Yes
   Frame=4   StationType=MinNumSta   MinNumSta=3   AddAtElmInt=Yes   AddAtPtLoad=Yes
   Frame=5   StationType=MinNumSta   MinNumSta=3   AddAtElmInt=Yes   AddAtPtLoad=Yes
   Frame=6   StationType=MinNumSta   MinNumSta=3   AddAtElmInt=Yes   AddAtPtLoad=Yes
   Frame=7   StationType=MinNumSta   MinNumSta=3   AddAtElmInt=Yes   AddAtPtLoad=Yes
   Frame=8   StationType=MinNumSta   MinNumSta=3   AddAtElmInt=Yes   AddAtPtLoad=Yes
   Frame=9   StationType=MinNumSta   MinNumSta=3   AddAtElmInt=Yes   AddAtPtLoad=Yes
   Frame=10   StationType=MinNumSta   MinNumSta=3   AddAtElmInt=Yes   AddAtPtLoad=Yes
   Frame=11   StationType=MinNumSta   MinNumSta=3   AddAtElmInt=Yes   AddAtPtLoad=Yes
   Frame=12   StationType=MinNumSta   MinNumSta=3   AddAtElmInt=Yes   AddAtPtLoad=Yes
   Frame=13   StationType=MinNumSta   MinNumSta=3   AddAtElmInt=Yes   AddAtPtLoad=Yes
   Frame=14   StationType=MinNumSta   MinNumSta=3   AddAtElmInt=Yes   AddAtPtLoad=Yes
   Frame=15   StationType=MinNumSta   MinNumSta=3   AddAtElmInt=Yes   AddAtPtLoad=Yes
   Frame=16   StationType=MinNumSta   MinNumSta=3   AddAtElmInt=Yes   AddAtPtLoad=Yes
   Frame=17   StationType=MinNumSta   MinNumSta=3   AddAtElmInt=Yes   AddAtPtLoad=Yes
   Frame=18   StationType=MinNumSta   MinNumSta=3   AddAtElmInt=Yes   AddAtPtLoad=Yes
   Frame=19   StationType=MinNumSta   MinNumSta=3   AddAtElmInt=Yes   AddAtPtLoad=Yes
   Frame=20   StationType=MinNumSta   MinNumSta=3   AddAtElmInt=Yes   AddAtPtLoad=Yes
# ... 12 like lines cut
   Frame=33   StationType=MaxStaSpcg   MaxStaSpcg=2   AddAtElmInt=Yes   AddAtPtLoad=Yes
   Frame=34   StationType=MaxStaSpcg   MaxStaSpcg=2   AddAtElmInt=Yes   AddAtPtLoad=Yes
   Frame=35   StationType=MaxStaSpcg   MaxStaSpcg=2   AddAtElmInt=Yes   AddAtPtLoad=Yes
   Frame=36   StationType=MaxStaSpcg   MaxStaSpcg=2   AddAtElmInt=Yes   AddAtPtLoad=Yes
   Frame=37   StationType=MaxStaSpcg   MaxStaSpcg=2   AddAtElmInt=Yes   AddAtPtLoad=Yes
   Frame=38   StationType=MaxStaSpcg   MaxStaSpcg=2   AddAtElmInt=Yes   AddAtPtLoad=Yes
   Frame=39   StationType=MaxStaSpcg   MaxStaSpcg=2   AddAtElmInt=Yes   AddAtPtLoad=Yes
   Frame=40   StationType=MaxStaSpcg   MaxStaSpcg=2   AddAtElmInt=Yes   AddAtPtLoad=Yes
   Frame=41   StationType=MaxStaSpcg   MaxStaSpcg=2   AddAtElmInt=Yes   AddAtPtLoad=Yes
   Frame=42   StationType=MaxStaSpcg   MaxStaSpcg=2   AddAtElmInt=Yes   AddAtPtLoad=Yes
   Frame=43   StationType=MaxStaSpcg   MaxStaSpcg=2   AddAtElmInt=Yes   AddAtPtLoad=Yes
   Frame=44   StationType=MaxStaSpcg   MaxStaSpcg=2   AddAtElmInt=Yes   AddAtPtLoad=Yes
   Frame=45   StationType=MaxStaSpcg   MaxStaSpcg=2   AddAtElmInt=Yes   AddAtPtLoad=Yes
   Frame=46   StationType=MaxStaSpcg   MaxStaSpcg=2   AddAtElmInt=Yes   AddAtPtLoad=Yes
   Frame=47   StationType=MaxStaSpcg   MaxStaSpcg=2   AddAtElmInt=Yes   AddAtPtLoad=Yes
   Frame=48   StationType=MaxStaSpcg   MaxStaSpcg=2   AddAtElmInt=Yes   AddAtPtLoad=Yes
   Frame=49   StationType=MaxStaSpcg   MaxStaSpcg=2   AddAtElmInt=Yes   AddAtPtLoad=Yes
   Frame=50   StationType=MaxStaSpcg   MaxStaSpcg=2   AddAtElmInt=Yes   AddAtPtLoad=Yes
   Frame=51   StationType=MaxStaSpcg   MaxStaSpcg=2   AddAtElmInt=Yes   AddAtPtLoad=Yes
   Frame=52   StationType=MaxStaSpcg   MaxStaSpcg=2   AddAtElmInt=Yes   AddAtPtLoad=Yes
# ... 28 like lines cut
 
TABLE:  "FRAME SECTION ASSIGNMENTS"
   Frame=1   AutoSelect=N.A.   AnalSect=FSEC1   MatProp=Default
   Frame=2   AutoSelect=N.A.   AnalSect=FSEC1   MatProp=Default
   Frame=3   AutoSelect=N.A.   AnalSect=FSEC1   MatProp=Default
   Frame=4   AutoSelect=N.A.   AnalSect=FSEC1   MatProp=Default
   Frame=5   AutoSelect=N.A.   AnalSect=FSEC1   MatProp=Default
   Frame=6   AutoSelect=N.A.   AnalSect=FSEC1   MatProp=Default
   Frame=7   AutoSelect=N.A.   AnalSect=FSEC1   MatProp=Default
   Frame=8   AutoSelect=N.A.   AnalSect=FSEC1   MatProp=Default
   Frame=9   AutoSelect=N.A.   AnalSect=FSEC1   MatProp=Default
   Frame=10   AutoSelect=N.A.   AnalSect=FSEC1   MatProp=Default
   Frame=11   AutoSelect=N.A.   AnalSect=FSEC1   MatProp=Default
   Frame=12   AutoSelect=N.A.   AnalSect=FSEC1   MatProp=Default
   Frame=13   AutoSelect=N.A.   AnalSect=FSEC1   MatProp=Default
   Frame=14   AutoSelect=N.A.   AnalSect=FSEC1   MatProp=Default
   Frame=15   AutoSelect=N.A.   AnalSect=FSEC1   MatProp=Default
   Frame=16   AutoSelect=N.A.   AnalSect=FSEC1   MatProp=Default
   Frame=17   AutoSelect=N.A.   AnalSect=FSEC1   MatProp=Default
   Frame=18   AutoSelect=N.A.   AnalSect=FSEC1   MatProp=Default
   Frame=19   AutoSelect=N.A.   AnalSect=FSEC1   MatProp=Default
   Frame=20   AutoSelect=N.A.   AnalSect=FSEC1   MatProp=Default
# ... 60 like lines cut
 
TABLE:  "FRAME SECTION PROPERTIES 01 - GENERAL"
   SectionName=FSEC1   Material=A992Fy50   Shape="I/Wide Flange"   t3=1   t2=0.41666666666666663   tf=0.03166666666666666   tw=0.020833333333333332   t2b=0.41666666666666663   tfb=0.03166666666666666   FilletRadius=0 _
        Area=0.04590277777777777   TorsConst=1.1182023998521087E-05   I33=0.0076149190457818925   I22=0.00038248949090149157   I23=0   AS2=0.020833333333333332   AS3=0.021990740740740738   S33Top=0.015229838091563785 _
        S33Bot=0.015229838091563785   S22Left=0.0018359495563271596   S22Right=0.0018359495563271596   Z33=0.01734612268518518   Z22=0.0028504774305555544   R33=0.40729882917458565   R22=0.09128307676869395   CGOffset3=0   CGOffset2=0 _
        EccV2=0   EccV3=0   Cw=8.949672592574727E-05   Color=Cyan   FromFile=No   AMod=1   A2Mod=1   A3Mod=1   JMod=1   I2Mod=1   I3Mod=1   MMod=1   WMod=1   GUID=4a060e3a-512b-4d02-9bef-44db1e9312c4   Notes="Added 11/25/2025 2:43:59 AM"
 
TABLE:  "FRAME SECTION PROPERTIES 13 - TIME DEPENDENT"
   SectionName=FSEC1   TypeSize=Auto   AutoSFSize=1
 
TABLE:  "FUNCTION - PLOT FUNCTIONS"
   PlotFunc="Input Energy"   Type=Energy   Component=Input   Mode=All
 
TABLE:  "FUNCTION - POWER SPECTRAL DENSITY - USER"
   Name=UNIFPSD   Frequency=0   Value=1
   Name=UNIFPSD   Frequency=1   Value=1
 
TABLE:  "FUNCTION - RESPONSE SPECTRUM - USER"
   Name=UNIFRS   Period=0   Accel=1   FuncDamp=0.05
   Name=UNIFRS   Period=1   Accel=1
 
TABLE:  "FUNCTION - STEADY STATE - USER"
   Name=UNIFSS   Frequency=0   Value=1
   Name=UNIFSS   Frequency=1   Value=1
 
TABLE:  "FUNCTION - TIME HISTORY - USER"
   Name=RAMPTH   Time=0   Value=0
   Name=RAMPTH   Time=1   Value=1
   Name=RAMPTH   Time=4   Value=1
   Name=UNIFTH   Time=0   Value=1
   Name=UNIFTH   Time=1   Value=1
 
TABLE:  "GRID LINES"
   CoordSys=GLOBAL   AxisDir=X   GridID=A   XRYZCoord=-30   LineType=Primary   LineColor=Gray8Dark   Visible=No   BubbleLoc=End   AllVisible=Yes   BubbleSize=4
   CoordSys=GLOBAL   AxisDir=X   GridID=B   XRYZCoord=-10   LineType=Primary   LineColor=Gray8Dark   Visible=No   BubbleLoc=End
   CoordSys=GLOBAL   AxisDir=X   GridID=C   XRYZCoord=10   LineType=Primary   LineColor=Gray8Dark   Visible=No   BubbleLoc=End
   CoordSys=GLOBAL   AxisDir=X   GridID=D   XRYZCoord=30   LineType=Primary   LineColor=Gray8Dark   Visible=No   BubbleLoc=End
   CoordSys=GLOBAL   AxisDir=Y   GridID=1   XRYZCoord=-30   LineType=Primary   LineColor=Gray8Dark   Visible=No   BubbleLoc=Start
   CoordSys=GLOBAL   AxisDir=Y   GridID=2   XRYZCoord=-10   LineType=Primary   LineColor=Gray8Dark   Visible=No   BubbleLoc=Start
   CoordSys=GLOBAL   AxisDir=Y   GridID=3   XRYZCoord=10   LineType=Primary   LineColor=Gray8Dark   Visible=No   BubbleLoc=Start
   CoordSys=GLOBAL   AxisDir=Y   GridID=4   XRYZCoord=30   LineType=Primary   LineColor=Gray8Dark   Visible=No   BubbleLoc=Start
   CoordSys=GLOBAL   AxisDir=Z   GridID=Z1   XRYZCoord=0   LineType=Primary   LineColor=Gray8Dark   Visible=No   BubbleLoc=End
   CoordSys=GLOBAL   AxisDir=Z   GridID=Z2   XRYZCoord=12   LineType=Primary   LineColor=Gray8Dark   Visible=No   BubbleLoc=End
   CoordSys=GLOBAL   AxisDir=Z   GridID=Z3   XRYZCoord=24   LineType=Primary   LineColor=Gray8Dark   Visible=No   BubbleLoc=End
 
TABLE:  "GROUPS 1 - DEFINITIONS"
   GroupName=ALL   Selection=Yes   SectionCut=Yes   Steel=Yes   Concrete=Yes   Aluminum=Yes   ColdFormed=Yes   Stage=Yes   Bridge=Yes   AutoSeismic=No   AutoWind=No   SelDesSteel=No   SelDesAlum=No   SelDesCold=No   MassWeight=Yes   Color=Red
 
TABLE:  "JOINT COORDINATES"
   Joint=1   CoordSys=GLOBAL   CoordType=Cartesian   XorR=-30   Y=-30   Z=0   SpecialJt=No   GUID=76508e1a-3686-456d-ba2e-e374154c5904
   Joint=2   CoordSys=GLOBAL   CoordType=Cartesian   XorR=-30   Y=-30   Z=12   SpecialJt=No   GUID=a6c72de0-b9d3-4b88-8a87-fb9925c50671
   Joint=3   CoordSys=GLOBAL   CoordType=Cartesian   XorR=-30   Y=-30   Z=24   SpecialJt=No   GUID=f77c795d-45f9-4ea4-b9a6-19e84299acf5
   Joint=4   CoordSys=GLOBAL   CoordType=Cartesian   XorR=-30   Y=-10   Z=0   SpecialJt=No   GUID=9128d98d-dfa0-4a5a-b04f-335e1cb6ad26
   Joint=5   CoordSys=GLOBAL   CoordType=Cartesian   XorR=-30   Y=-10   Z=12   SpecialJt=No   GUID=a4b88f21-2bc1-4882-bd71-882222016c4d
   Joint=6   CoordSys=GLOBAL   CoordType=Cartesian   XorR=-30   Y=-10   Z=24   SpecialJt=No   GUID=8844a4d4-c4c7-42df-8530-53cda2d91973
   Joint=7   CoordSys=GLOBAL   CoordType=Cartesian   XorR=-30   Y=10   Z=0   SpecialJt=No   GUID=b13ef7bb-32fc-4be0-bcff-fe2d34a9b259
   Joint=8   CoordSys=GLOBAL   CoordType=Cartesian   XorR=-30   Y=10   Z=12   SpecialJt=No   GUID=a3a2f8dd-e45c-4eb6-b516-7e6200181541
   Joint=9   CoordSys=GLOBAL   CoordType=Cartesian   XorR=-30   Y=10   Z=24   SpecialJt=No   GUID=999c9cc3-4d2c-4d73-a804-140cbcf01d29
   Joint=10   CoordSys=GLOBAL   CoordType=Cartesian   XorR=-30   Y=30   Z=0   SpecialJt=No   GUID=09c45cec-8349-4285-9e8a-33a1305111b8
   Joint=11   CoordSys=GLOBAL   CoordType=Cartesian   XorR=-30   Y=30   Z=12   SpecialJt=No   GUID=ca0ce266-33f4-4b5b-8d77-1f2100d89c09
   Joint=12   CoordSys=GLOBAL   CoordType=Cartesian   XorR=-30   Y=30   Z=24   SpecialJt=No   GUID=1068211c-2787-4a4f-90fb-6596f184132d
   Joint=13   CoordSys=GLOBAL   CoordType=Cartesian   XorR=-10   Y=-30   Z=0   SpecialJt=No   GUID=b81581d2-06e8-433d-8aad-bbde2cfbdc0a
   Joint=14   CoordSys=GLOBAL   CoordType=Cartesian   XorR=-10   Y=-30   Z=12   SpecialJt=No   GUID=76a055af-efce-417f-a26a-a1d47f3c8a57
   Joint=15   CoordSys=GLOBAL   CoordType=Cartesian   XorR=-10   Y=-30   Z=24   SpecialJt=No   GUID=6bfd7edb-7738-4c3e-a9cc-16144676524f
   Joint=16   CoordSys=GLOBAL   CoordType=Cartesian   XorR=-10   Y=-10   Z=0   SpecialJt=No   GUID=c1c27a23-ec80-4487-898e-8ea90cd67d1e
   Joint=17   CoordSys=GLOBAL   CoordType=Cartesian   XorR=-10   Y=-10   Z=12   SpecialJt=No   GUID=0f6124ca-8674-4d33-870b-04b7a4574be7
   Joint=18   CoordSys=GLOBAL   CoordType=Cartesian   XorR=-10   Y=-10   Z=24   SpecialJt=No   GUID=9e2d1232-8808-42c6-b71f-afca9fb6f5c0
   Joint=19   CoordSys=GLOBAL   CoordType=Cartesian   XorR=-10   Y=10   Z=0   SpecialJt=No   GUID=e78def3e-40bd-4ffe-bd2d-0e79bc4d8693
   Joint=20   CoordSys=GLOBAL   CoordType=Cartesian   XorR=-10   Y=10   Z=12   SpecialJt=No   GUID=083e19ff-41b3-4c98-9b0d-a6830f4f696d
   Joint=21   CoordSys=GLOBAL   CoordType=Cartesian   XorR=-10   Y=10   Z=24   SpecialJt=No   GUID=ed985016-727e-41b4-8dd1-79082e10e39c
   Joint=22   CoordSys=GLOBAL   CoordType=Cartesian   XorR=-10   Y=30   Z=0   SpecialJt=No   GUID=3d3e9981-1429-41b5-ab83-27f1a1d4735f
   Joint=23   CoordSys=GLOBAL   CoordType=Cartesian   XorR=-10   Y=30   Z=12   SpecialJt=No   GUID=8a7a68d3-49e8-45fc-9106-b32dd90021b8
   Joint=24   CoordSys=GLOBAL   CoordType=Cartesian   XorR=-10   Y=30   Z=24   SpecialJt=No   GUID=c94fc826-52cb-4c54-ad47-ca8a7b5c6175
   Joint=25   CoordSys=GLOBAL   CoordType=Cartesian   XorR=10   Y=-30   Z=0   SpecialJt=No   GUID=8ad99c0a-9edc-420c-ae64-1f4934c6a6d7
   Joint=26   CoordSys=GLOBAL   CoordType=Cartesian   XorR=10   Y=-30   Z=12   SpecialJt=No   GUID=418ce0e3-19e4-4966-93d8-d722c9702d58
   Joint=27   CoordSys=GLOBAL   CoordType=Cartesian   XorR=10   Y=-30   Z=24   SpecialJt=No   GUID=c0fc9c2d-a3b1-4359-b44c-bf1b36b109eb
   Joint=28   CoordSys=GLOBAL   CoordType=Cartesian   XorR=10   Y=-10   Z=0   SpecialJt=No   GUID=554392b5-6186-43ee-ab57-ef9d430ad663
   Joint=29   CoordSys=GLOBAL   CoordType=Cartesian   XorR=10   Y=-10   Z=12   SpecialJt=No   GUID=099b2f55-0315-4781-bbc4-6549ac4e0f4d
   Joint=30   CoordSys=GLOBAL   CoordType=Cartesian   XorR=10   Y=-10   Z=24   SpecialJt=No   GUID=880b8d8f-fb97-4d62-ba31-3030e8d8d516
   Joint=31   CoordSys=GLOBAL   CoordType=Cartesian   XorR=10   Y=10   Z=0   SpecialJt=No   GUID=027c9159-5177-4c72-bc0a-129578cc6bc4
   Joint=32   CoordSys=GLOBAL   CoordType=Cartesian   XorR=10   Y=10   Z=12   SpecialJt=No   GUID=b978da32-b55c-4748-a4f7-fbfb5b4cddcf
   Joint=33   CoordSys=GLOBAL   CoordType=Cartesian   XorR=10   Y=10   Z=24   SpecialJt=No   GUID=ae7db796-8a4c-4c30-a873-8cbd9df50cb0
   Joint=34   CoordSys=GLOBAL   CoordType=Cartesian   XorR=10   Y=30   Z=0   SpecialJt=No   GUID=11435778-e6df-41bc-be68-370f9fc869f3
   Joint=35   CoordSys=GLOBAL   CoordType=Cartesian   XorR=10   Y=30   Z=12   SpecialJt=No   GUID=6616725e-5ea2-4919-97e7-3073da29ce4c
   Joint=36   CoordSys=GLOBAL   CoordType=Cartesian   XorR=10   Y=30   Z=24   SpecialJt=No   GUID=a14db10e-2619-4f8f-9ab6-ab276ac9fcba
   Joint=37   CoordSys=GLOBAL   CoordType=Cartesian   XorR=30   Y=-30   Z=0   SpecialJt=No   GUID=287640dc-7fe0-40cb-a9a4-dba0978291c5
   Joint=38   CoordSys=GLOBAL   CoordType=Cartesian   XorR=30   Y=-30   Z=12   SpecialJt=No   GUID=240eb46a-c737-4d7a-8df5-ba3f9f0135fb
   Joint=39   CoordSys=GLOBAL   CoordType=Cartesian   XorR=30   Y=-30   Z=24   SpecialJt=No   GUID=e27452b8-631d-47d9-97cb-941c839b6268
   Joint=40   CoordSys=GLOBAL   CoordType=Cartesian   XorR=30   Y=-10   Z=0   SpecialJt=No   GUID=da4b611e-51a1-43d2-b74a-88ba72854c61
   Joint=41   CoordSys=GLOBAL   CoordType=Cartesian   XorR=30   Y=-10   Z=12   SpecialJt=No   GUID=8c1d6795-5ce2-4d7b-9eba-848e8da83fd1
   Joint=42   CoordSys=GLOBAL   CoordType=Cartesian   XorR=30   Y=-10   Z=24   SpecialJt=No   GUID=ee00d4f9-4344-431f-8fb4-dedbe95f646e
   Joint=43   CoordSys=GLOBAL   CoordType=Cartesian   XorR=30   Y=10   Z=0   SpecialJt=No   GUID=90294ee3-aa52-497f-921a-f44878c57092
   Joint=44   CoordSys=GLOBAL   CoordType=Cartesian   XorR=30   Y=10   Z=12   SpecialJt=No   GUID=6f57ddc7-27fe-4bf9-a985-6f862155a6b4
   Joint=45   CoordSys=GLOBAL   CoordType=Cartesian   XorR=30   Y=10   Z=24   SpecialJt=No   GUID=3b32c40a-072d-4ad9-ba79-a10cbc589102
   Joint=46   CoordSys=GLOBAL   CoordType=Cartesian   XorR=30   Y=30   Z=0   SpecialJt=No   GUID=363dc1fd-b76d-4c25-a32b-843579fb9e57
   Joint=47   CoordSys=GLOBAL   CoordType=Cartesian   XorR=30   Y=30   Z=12   SpecialJt=No   GUID=4eae7d3f-fa53-4ca1-ae62-32dcbf809785
   Joint=48   CoordSys=GLOBAL   CoordType=Cartesian   XorR=30   Y=30   Z=24   SpecialJt=No   GUID=07f6747a-6f08-4bbb-8733-3d2c719b7ad5
 
TABLE:  "JOINT LOADS - FORCE"
   Joint=3   LoadPat=TOP_LOAD   CoordSys=GLOBAL   F1=80   F2=0   F3=0   M1=0   M2=0   M3=0   GUID=1d22b45a-3946-410c-80f3-6472f6fa1225
   Joint=3   LoadPat=TOP_LOAD   CoordSys=GLOBAL   F1=0   F2=90   F3=0   M1=0   M2=0   M3=0   GUID=96f6b108-9725-4db4-ad42-c3e57aa114ef
   Joint=6   LoadPat=TOP_LOAD   CoordSys=GLOBAL   F1=80   F2=0   F3=0   M1=0   M2=0   M3=0   GUID=d65ed997-d4ea-4f29-8a5a-ecf56daca316
   Joint=9   LoadPat=TOP_LOAD   CoordSys=GLOBAL   F1=80   F2=0   F3=0   M1=0   M2=0   M3=0   GUID=f7038771-007d-44e3-8986-de693c75233d
   Joint=12   LoadPat=TOP_LOAD   CoordSys=GLOBAL   F1=80   F2=0   F3=0   M1=0   M2=0   M3=0   GUID=3e3709d1-f5a2-4585-ad38-37045441daeb
   Joint=15   LoadPat=TOP_LOAD   CoordSys=GLOBAL   F1=0   F2=90   F3=0   M1=0   M2=0   M3=0   GUID=6b742e9f-089f-4323-8be0-aa7a727fafd1
   Joint=27   LoadPat=TOP_LOAD   CoordSys=GLOBAL   F1=0   F2=90   F3=0   M1=0   M2=0   M3=0   GUID=54231396-6db8-4c8a-be2b-d4d5b64a6905
   Joint=39   LoadPat=TOP_LOAD   CoordSys=GLOBAL   F1=0   F2=90   F3=0   M1=0   M2=0   M3=0   GUID=b4394a54-1944-430e-999b-67c54380a336
 
TABLE:  "JOINT PATTERN DEFINITIONS"
   Pattern=Default
 
TABLE:  "JOINT RESTRAINT ASSIGNMENTS"
   Joint=1   U1=Yes   U2=Yes   U3=Yes   R1=No   R2=No   R3=No
   Joint=4   U1=Yes   U2=Yes   U3=Yes   R1=No   R2=No   R3=No
   Joint=7   U1=Yes   U2=Yes   U3=Yes   R1=No   R2=No   R3=No
   Joint=10   U1=Yes   U2=Yes   U3=Yes   R1=No   R2=No   R3=No
   Joint=13   U1=Yes   U2=Yes   U3=Yes   R1=No   R2=No   R3=No
   Joint=16   U1=Yes   U2=Yes   U3=Yes   R1=No   R2=No   R3=No
   Joint=19   U1=Yes   U2=Yes   U3=Yes   R1=No   R2=No   R3=No
   Joint=22   U1=Yes   U2=Yes   U3=Yes   R1=No   R2=No   R3=No
   Joint=25   U1=Yes   U2=Yes   U3=Yes   R1=No   R2=No   R3=No
   Joint=28   U1=Yes   U2=Yes   U3=Yes   R1=No   R2=No   R3=No
   Joint=31   U1=Yes   U2=Yes   U3=Yes   R1=No   R2=No   R3=No
   Joint=34   U1=Yes   U2=Yes   U3=Yes   R1=No   R2=No   R3=No
   Joint=37   U1=Yes   U2=Yes   U3=Yes   R1=No   R2=No   R3=No
   Joint=40   U1=Yes   U2=Yes   U3=Yes   R1=No   R2=No   R3=No
   Joint=43   U1=Yes   U2=Yes   U3=Yes   R1=No   R2=No   R3=No
   Joint=46   U1=Yes   U2=Yes   U3=Yes   R1=No   R2=No   R3=No
 
TABLE:  "LOAD CASE DEFINITIONS"
   Case=DEAD   Type=LinStatic   InitialCond=Zero   DesTypeOpt="Prog Det"   DesignType=Dead   DesActOpt="Prog Det"   DesignAct=Non-Composite   AutoType=None   RunCase=Yes   GUID=cbeb535a-d1d3-46c8-8ad9-4c36266b2c2b
   Case=MODAL   Type=LinModal   InitialCond=Zero   DesTypeOpt="Prog Det"   DesignType=Other   DesActOpt="Prog Det"   DesignAct=Other   AutoType=None   RunCase=Yes   GUID=c65c214b-406e-4134-9e0f-7ab424a8da2e
   Case=TOP_LOAD   Type=LinStatic   InitialCond=Zero   DesTypeOpt="Prog Det"   DesignType=Other   DesActOpt="Prog Det"   DesignAct=Other   AutoType=None   RunCase=Yes   GUID=3d7c341c-7a6a-4cda-9f4f-552ca4d6b1d7
 
TABLE:  "LOAD PATTERN DEFINITIONS"
   LoadPat=DEAD   DesignType=Dead   SelfWtMult=1   GUID=4dfad4a1-e1c8-46f2-94b3-fe34b4c6b0a2
   LoadPat=TOP_LOAD   DesignType=Other   SelfWtMult=0   GUID=cafc0d4b-80de-406c-8f03-0e6a237f113a
 
TABLE:  "MASS SOURCE"
   MassSource=MSSSRC1   Elements=Yes   Masses=Yes   Loads=No   IsDefault=Yes
 
TABLE:  "MATERIAL PROPERTIES 01 - GENERAL"
   Material=4000Psi   Type=Concrete   Grade="f'c 4000 psi"   SymType=Isotropic   TempDepend=No   Color=Magenta   GUID=6f7b36d1-91e1-45c2-8578-2588b530da10   Notes="Customary f'c 4000 psi 11/25/2025 2:43:59 AM"
   Material=A992Fy50   Type=Steel   Grade="Grade 50"   SymType=Isotropic   TempDepend=No   Color=Red   GUID=409414a7-1a8e-4342-816a-d675feca0d80   Notes="ASTM A992 Grade 50 11/25/2025 2:43:59 AM"
 
TABLE:  "MATERIAL PROPERTIES 02 - BASIC MECHANICAL PROPERTIES"
   Material=4000Psi   UnitWeight=0.15000000000768005   UnitMass=0.004662142315545601   E1=519119.49600000004   G12=216299.79000000004   U12=0.2   A1=5.5E-06
   Material=A992Fy50   UnitWeight=0.49000000000000044   UnitMass=0.01522966490075077   E1=4176000   G12=1606153.846153846   U12=0.3   A1=6.5E-06
 
TABLE:  "MATERIAL PROPERTIES 03A - STEEL DATA"
   Material=A992Fy50   Fy=7200   Fu=9360   EffFy=7920   EffFu=10296   SSCurveOpt=Simple   SSHysType=Kinematic   SHard=0.015   SMax=0.11   SRup=0.17   FinalSlope=-0.1   CoupModType="Von Mises"
 
TABLE:  "MATERIAL PROPERTIES 03B - CONCRETE DATA"
   Material=4000Psi   Fc=576   eFc=576   LtWtConc=No   SSCurveOpt=Mander   SSHysType=Takeda   SFc=0.00221914   SCap=0.005   FinalSlope=-0.1   FAngle=0   DAngle=0   CoupModType="Modified Darwin-Pecknold"
 
TABLE:  "MATERIAL PROPERTIES 03J - COUPLED NONLINEAR VON MISES DATA"
   Material=A992Fy50   YieldStress=7920   LinIsoHard=No   LinKinHard=No   NLIsoSaHard=No
 
TABLE:  "MATERIAL PROPERTIES 06 - DAMPING PARAMETERS"
   Material=4000Psi   ModalRatio=0   VisMass=0   VisStiff=0   HysMass=0   HysStiff=0
   Material=A992Fy50   ModalRatio=0   VisMass=0   VisStiff=0   HysMass=0   HysStiff=0
 
TABLE:  "MATERIAL PROPERTIES 09 - ACCEPTANCE CRITERIA"
   Material=4000Psi   IOTens=0.01   LSTens=0.02   CPTens=0.05   IOComp=-0.003   LSComp=-0.006   CPComp=-0.015   IgnoreTens=Yes
   Material=A992Fy50   IOTens=0.01   LSTens=0.02   CPTens=0.05   IOComp=-0.005   LSComp=-0.01   CPComp=-0.02
 
TABLE:  "OPTIONS - COLORS - DISPLAY"
   DeviceType=Screen   Points=Blue   LinesFrame=Blue   LinesFrmDL=Blue   LinesCable=Green   LinesTendon=Green   SpringLinks=Green   Restraints=Green   Releases=Green   Axes=Cyan   Text=Black   ShadowLines=Gray8Dark   GuideLines=Gray8Dark _
        Highlight=Red   Selection=10504778   AreaFillBot=Red   AreaFillTop=16744703   AreaFillSd=Red   AreaEdge=DarkRed   SolidF1=Red   SolidF2=Blue   SolidF3=Green   SolidF4=Yellow   SolidF5=White   SolidF6=Cyan   SolidEdge=DarkRed _
        Floor=Gray4   Background=White   BGLowLeft=White   BGLowRight=White   BGUpRight=White   Darkness=0
   DeviceType=Printer   Points=Gray8Dark   LinesFrame=Black   LinesFrmDL=Gray4   LinesCable=Black   LinesTendon=Black   SpringLinks=Gray8Dark   Restraints=Gray8Dark   Releases=Gray4   Axes=Black   Text=Black   ShadowLines=Gray4 _
        GuideLines=Gray4   Highlight=Black   Selection=Black   AreaFillBot=Gray4   AreaFillTop=Gray8Dark   AreaFillSd=Gray4   AreaEdge=Black   SolidF1=Gray1Light   SolidF2=Gray2   SolidF3=Gray3   SolidF4=Gray4   SolidF5=Gray5 _
        SolidF6=Gray6   SolidEdge=Black   Floor=Gray4   Background=White   BGLowLeft=White   BGLowRight=White   BGUpRight=White   Darkness=0.5
   DeviceType="Color Printer"   Points=Blue   LinesFrame=Blue   LinesFrmDL=Blue   LinesCable=Green   LinesTendon=Green   SpringLinks=Green   Restraints=Green   Releases=Green   Axes=Cyan   Text=Black   ShadowLines=Gray8Dark _
        GuideLines=Gray8Dark   Highlight=Red   Selection=10504778   AreaFillBot=Red   AreaFillTop=16744703   AreaFillSd=Red   AreaEdge=DarkRed   SolidF1=Red   SolidF2=Blue   SolidF3=Green   SolidF4=Yellow   SolidF5=White   SolidF6=Cyan _
        SolidEdge=DarkRed   Floor=Gray4   Background=White   BGLowLeft=White   BGLowRight=White   BGUpRight=White   Darkness=0.5
 
TABLE:  "OPTIONS - COLORS - OUTPUT"
   DeviceType=Screen   Contour1=13107400   Contour2=6553828   Contour3=Red   Contour4=16639   Contour5=Orange   Contour6=43775   Contour7=54527   Contour8=Yellow   Contour9=65408   Contour10=Green   Contour11=8453888   Contour12=Cyan _
        Contour13=16755200   Contour14=16733440   Contour15=Blue   Transpare=0   Ratio1=Cyan   Ratio2=Green   Ratio3=Yellow   Ratio4=Orange   Ratio5=Red   RatioNotD=Gray4   RatioNotC=Red   RatioVal1=0.5   RatioVal2=0.7   RatioVal3=0.9 _
        RatioVal4=1   DFillPos=Blue   DFillNeg=Red   DFillRPos=9498256   DFillRNeg=9498256
   DeviceType=Printer   Contour1=Black   Contour2=3158064   Contour3=4210752   Contour4=5263440   Contour5=6316128   Contour6=7368816   Contour7=Gray8Dark   Contour8=Gray7   Contour9=Gray6   Contour10=Gray5   Contour11=Gray4 _
        Contour12=Gray3   Contour13=Gray2   Contour14=Gray1Light   Contour15=White   Transpare=0   Ratio1=Gray2   Ratio2=Gray4   Ratio3=Gray8Dark   Ratio4=4210752   Ratio5=Black   RatioNotD=Gray4   RatioNotC=Black   RatioVal1=0.5 _
        RatioVal2=0.7   RatioVal3=0.9   RatioVal4=1   DFillPos=Gray8Dark   DFillNeg=Gray8Dark   DFillRPos=4210752   DFillRNeg=4210752
   DeviceType="Color Printer"   Contour1=13107400   Contour2=6553828   Contour3=Red   Contour4=16639   Contour5=Orange   Contour6=43775   Contour7=54527   Contour8=Yellow   Contour9=65408   Contour10=Green   Contour11=8453888 _
        Contour12=Cyan   Contour13=16755200   Contour14=16733440   Contour15=Blue   Transpare=0   Ratio1=Cyan   Ratio2=Green   Ratio3=Yellow   Ratio4=Orange   Ratio5=Red   RatioNotD=Gray4   RatioNotC=Red   RatioVal1=0.5   RatioVal2=0.7 _
        RatioVal3=0.9   RatioVal4=1   DFillPos=Blue   DFillNeg=Red   DFillRPos=9498256   DFillRNeg=9498256
 
TABLE:  "PREFERENCES - ALUMINUM DESIGN - AA 2015"
   THDesign=Envelopes   SRatioLimit=1   Provision=LRFD   LatFact=1.3333333333333333   UseLatFact=No   Bridge=No   AMethod="Direct Analysis"   SOMethod="General 2nd Order"   SRMethod="Tau-b Fixed"   PhiTy=0.9   PhiTr=0.75   PhiC=0.9 _
        PhiBo=0.9   PhiBr=0.75   PhiVo=0.9   PhiVr=0.75
 
TABLE:  "PREFERENCES - COLD FORMED DESIGN - AISI-16"
   THDesign=Envelopes   FrameType="Braced Frame"   SRatioLimit=1   SOMethod="General 2nd Order"   Provision=LRFD   LatFact=1.3333333333333333   UseLatFact=No   PhiTy=0.9   PhiTr=0.75   PhiC=0.85   PhiB=0.9   PhiBPipe=0.95   PhiV=0.95
 
TABLE:  "PREFERENCES - CONCRETE DESIGN - ACI 318-19"
   THDesign=Envelopes   NumCurves=24   NumPoints=11   MinEccen=Yes   BCCDesign=Yes   IgnoreBPu=Yes   CTorsion=Yes   PatLLF=0.75   UFLimit=0.95   SeisCat=D   Rho=1   Sds=0.5   PhiT=0.9   PhiCTied=0.65   PhiCSpiral=0.75   PhiV=0.75 _
        PhiVSeismic=0.6   PhiVJoint=0.85   TanTheta=1
 
TABLE:  "PREFERENCES - CONCRETE SHELL DESIGN - EUROCODE 2-2004"
   Country="CEN Default"   GammaS=1.15   GammaC=1.5   AlphaCC=1   AlphaCT=1   CrackCond="Program Determined"   ShrDesMet="Method 1"   CotTheta=1   AddTenForce=Yes
 
TABLE:  "PREFERENCES - DIMENSIONAL"
   MergeTol=0.008333333333333333   FineGrid=1   Nudge=1   SelectTol=3   SnapTol=12   SLineThick=2   PLineThick=4   MaxFont=12   MinFont=6   AutoZoom=10   ShrinkFact=70   TextFileLen=240
 
TABLE:  "PREFERENCES - STEEL DESIGN - AISC 360-16"
   THDesign=Envelopes   FrameType=SMF   PatLLF=0.75   SRatioLimit=0.95   MaxIter=1   SDC=D   SeisCode=No   SeisLoad=No   ImpFactor=1   SystemRho=1   SystemSds=0.5   SystemR=8   SystemCd=5.5   Omega0=3   Provision=LRFD _
        AMethod="Direct Analysis"   SOMethod="General 2nd Order"   SRMethod="Tau-b Fixed"   NLCoeff=0.002   PhiB=0.9   PhiC=0.9   PhiTY=0.9   PhiTF=0.75   PhiV=0.9   PhiVRolledI=1   PhiVT=0.9   PlugWeld=Yes   HSSWelding=ERW   HSSReduceT=No _
        CheckDefl=No   DLRat=120   SDLAndLLRat=120   LLRat=360   TotalRat=240   NetRat=240
 
TABLE:  "PROGRAM CONTROL"
   ProgramName=SAP2000   Version=26.3.0   CurrUnits="Kip, ft, F"   SteelCode="AISC 360-16"   ConcCode="ACI 318-19"   AlumCode="AA 2015"   ColdCode=AISI-16   ConcSCode="Eurocode 2-2004"   RegenHinge=Yes
 
TABLE:  "PROJECT INFORMATION"
   Item="Company Name"
   Item="Client Name"
   Item="Project Name"
   Item="Project Number"
   Item="Model Name"
   Item="Model Description"
   Item="Revision Number"
   Item="Frame Type"
   Item=Engineer
   Item=Checker
   Item=Supervisor
   Item="Issue Code"
   Item="Design Code"
 
TABLE:  "REBAR SIZES"
   RebarID=#2   Area=0.00034722222222222224   Diameter=0.020833333333333332
   RebarID=#3   Area=0.0007638888847496774   Diameter=0.03125
   RebarID=#4   Area=0.001388888909584946   Diameter=0.041666666666666664
   RebarID=#5   Area=0.0021527777943346235   Diameter=0.05208333333333333
   RebarID=#6   Area=0.0030555555389987095   Diameter=0.0625
   RebarID=#7   Area=0.004166666832235124   Diameter=0.07291666666666666
   RebarID=#8   Area=0.005486111260122723   Diameter=0.08333333333333333
   RebarID=#9   Area=0.006944444444444444   Diameter=0.09400000174840291
   RebarID=#10   Area=0.008819444311989678   Diameter=0.10583333174387613
   RebarID=#11   Area=0.010833332935969034   Diameter=0.1174999972184499
   RebarID=#14   Area=0.015625   Diameter=0.14108332991600037
   RebarID=#18   Area=0.027777777777777776   Diameter=0.1880833307902018
   RebarID=10M   Area=0.0010763910702533191   Diameter=0.037073493003845215
   RebarID=15M   Area=0.0021527821405066382   Diameter=0.05249343812465668
   RebarID=20M   Area=0.0032291733142402433   Diameter=0.06397637724876404
   RebarID=25M   Area=0.0053819554547468815   Diameter=0.08267717063426971
   RebarID=30M   Area=0.007534737388292948   Diameter=0.09809711575508118
   RebarID=35M   Area=0.010763910909493763   Diameter=0.1171259880065918
   RebarID=45M   Area=0.01614586677816179   Diameter=0.14337270458539325
   RebarID=55M   Area=0.026909776859813266   Diameter=0.1850393811861674
   RebarID=6d   Area=0.00030461866925987933   Diameter=0.019685039917627968
   RebarID=8d   Area=0.0005414246891935666   Diameter=0.02624671906232834
   RebarID=10d   Area=0.0008449669823878341   Diameter=0.0328083982070287
   RebarID=12d   Area=0.0012163219766484366   Diameter=0.039370079835255936
   RebarID=14d   Area=0.0016576423206263117   Diameter=0.04593176146348317
   RebarID=16d   Area=0.002163546159863472   Diameter=0.05249343812465668
   RebarID=20d   Area=0.0033798679295513365   Diameter=0.0656167964140574
   RebarID=25d   Area=0.005285080108377668   Diameter=0.08202099800109863
   RebarID=26d   Area=0.005715636743439568   Diameter=0.08530183633168538
   RebarID=28d   Area=0.006630569282505247   Diameter=0.09186352292696634
   RebarID=N12   Area=0.0012163219766484366   Diameter=0.039370079835255936
   RebarID=N16   Area=0.002163546159863472   Diameter=0.05249343812465668
   RebarID=N20   Area=0.0033798679295513365   Diameter=0.0656167964140574
   RebarID=N24   Area=0.0048652879065937465   Diameter=0.07874015967051187
   RebarID=N28   Area=0.006630569282505247   Diameter=0.09186352292696634
   RebarID=N32   Area=0.008654184639453888   Diameter=0.10498687624931335
   RebarID=N36   Area=0.01097918881310357   Diameter=0.11811023950576782
 
END TABLE DATA
