File D:\Users\JoinTheLegion\Downloads\SAP\StructGNN\Cyrus_Testing\Automated_3DFrame.$2k was saved on m/d/yy at h:mm:ss
 
TABLE:  "ACTIVE DEGREES OF FREEDOM"
   UX=Yes   UY=Yes   UZ=Yes   RX=Yes   RY=Yes   RZ=Yes
 
TABLE:  "ANALYSIS OPTIONS"
   Solver=Advanced   SolverProc=Auto   Force32Bit=No   StiffCase=None   GeomMod=None   HingeOpt="In Elements"   NumAThreads=0   MaxFileSize=0   NumDThreads=0   NumRThreads=0   UseMMFiles="Program Determined"   AllowDiff=No
 
TABLE:  "AREA AUTO MESH ASSIGNMENTS"
   Area=1   MeshType="Number of Elements"   MeshGroup=ALL   Number1=4   Number2=4   LocalEdge=No   LocalFace=No   SuppEdge=No   SuppFace=No   SubMesh=No
   Area=2   MeshType="Number of Elements"   MeshGroup=ALL   Number1=4   Number2=4   LocalEdge=No   LocalFace=No   SuppEdge=No   SuppFace=No   SubMesh=No
   Area=3   MeshType="Number of Elements"   MeshGroup=ALL   Number1=4   Number2=4   LocalEdge=No   LocalFace=No   SuppEdge=No   SuppFace=No   SubMesh=No
   Area=4   MeshType="Number of Elements"   MeshGroup=ALL   Number1=4   Number2=4   LocalEdge=No   LocalFace=No   SuppEdge=No   SuppFace=No   SubMesh=No
   Area=5   MeshType="Number of Elements"   MeshGroup=ALL   Number1=4   Number2=4   LocalEdge=No   LocalFace=No   SuppEdge=No   SuppFace=No   SubMesh=No
   Area=6   MeshType="Number of Elements"   MeshGroup=ALL   Number1=4   Number2=4   LocalEdge=No   LocalFace=No   SuppEdge=No   SuppFace=No   SubMesh=No
   Area=7   MeshType="Number of Elements"   MeshGroup=ALL   Number1=4   Number2=4   LocalEdge=No   LocalFace=No   SuppEdge=No   SuppFace=No   SubMesh=No
   Area=8   MeshType="Number of Elements"   MeshGroup=ALL   Number1=4   Number2=4   LocalEdge=No   LocalFace=No   SuppEdge=No   SuppFace=No   SubMesh=No
   Area=9   MeshType="Number of Elements"   MeshGroup=ALL   Number1=4   Number2=4   LocalEdge=No   LocalFace=No   SuppEdge=No   SuppFace=No   SubMesh=No
   Area=10   MeshType="Number of Elements"   MeshGroup=ALL   Number1=4   Number2=4   LocalEdge=No   LocalFace=No   SuppEdge=No   SuppFace=No   SubMesh=No
   Area=11   MeshType="Number of Elements"   MeshGroup=ALL   Number1=4   Number2=4   LocalEdge=No   LocalFace=No   SuppEdge=No   SuppFace=No   SubMesh=No
   Area=12   MeshType="Number of Elements"   MeshGroup=ALL   Number1=4   Number2=4   LocalEdge=No   LocalFace=No   SuppEdge=No   SuppFace=No   SubMesh=No
   Area=13   MeshType="Number of Elements"   MeshGroup=ALL   Number1=4   Number2=4   LocalEdge=No   LocalFace=No   SuppEdge=No   SuppFace=No   SubMesh=No
   Area=14   MeshType="Number of Elements"   MeshGroup=ALL   Number1=4   Number2=4   LocalEdge=No   LocalFace=No   SuppEdge=No   SuppFace=No   SubMesh=No
   Area=15   MeshType="Number of Elements"   MeshGroup=ALL   Number1=4   Number2=4   LocalEdge=No   LocalFace=No   SuppEdge=No   SuppFace=No   SubMesh=No
   Area=16   MeshType="Number of Elements"   MeshGroup=ALL   Number1=4   Number2=4   LocalEdge=No   LocalFace=No   SuppEdge=No   SuppFace=No   SubMesh=No
   Area=17   MeshType="Number of Elements"   MeshGroup=ALL   Number1=4   Number2=4   LocalEdge=No   LocalFace=No   SuppEdge=No   SuppFace=No   SubMesh=No
   Area=18   MeshType="Number of Elements"   MeshGroup=ALL   Number1=4   Number2=4   LocalEdge=No   LocalFace=No   SuppEdge=No   SuppFace=No   SubMesh=No
   Area=19   MeshType="Number of Elements"   MeshGroup=ALL   Number1=4   Number2=4   LocalEdge=No   LocalFace=No   SuppEdge=No   SuppFace=No   SubMesh=No
   Area=20   MeshType="Number of Elements"   MeshGroup=ALL   Number1=4   Number2=4   LocalEdge=No   LocalFace=No   SuppEdge=No   SuppFace=No   SubMesh=No
# ... 12 like lines cut
 
TABLE:  "AREA SECTION ASSIGNMENTS"
   Area=1   Section=ASEC1   MatProp=Default
   Area=2   Section=ASEC1   MatProp=Default
   Area=3   Section=ASEC1   MatProp=Default
   Area=4   Section=ASEC1   MatProp=Default
   Area=5   Section=ASEC1   MatProp=Default
   Area=6   Section=ASEC1   MatProp=Default
   Area=7   Section=ASEC1   MatProp=Default
   Area=8   Section=ASEC1   MatProp=Default
   Area=9   Section=ASEC1   MatProp=Default
   Area=10   Section=ASEC1   MatProp=Default
   Area=11   Section=ASEC1   MatProp=Default
   Area=12   Section=ASEC1   MatProp=Default
   Area=13   Section=ASEC1   MatProp=Default
   Area=14   Section=ASEC1   MatProp=Default
   Area=15   Section=ASEC1   MatProp=Default
   Area=16   Section=ASEC1   MatProp=Default
   Area=17   Section=ASEC1   MatProp=Default
   Area=18   Section=ASEC1   MatProp=Default
   Area=19   Section=ASEC1   MatProp=Default
   Area=20   Section=ASEC1   MatProp=Default
# ... 12 like lines cut
 
TABLE:  "AREA SECTION PROPERTIES"
   Section=ASEC1   Material=4000Psi   MatAngle=0   AreaType=Shell   Type=Shell-Thin   DrillDOF=Yes   Thickness=1   BendThick=1   Color=Cyan   F11Mod=1   F22Mod=1   F12Mod=1   M11Mod=1   M22Mod=1   M12Mod=1   V13Mod=1   V23Mod=1   MMod=1 _
        WMod=1   GUID=f363ba45-da6a-480e-9de9-7232a0bb726c   Notes="Added 8/13/2025 11:56:51 PM"
 
TABLE:  "AREA SECTION PROPERTY DESIGN PARAMETERS"
   Section=ASEC1   RebarMat=None   RebarOpt=Default
 
TABLE:  "AREA SECTION PROPERTY - TIME DEPENDENT"
   Section=ASEC1   TypeSize=Auto   AutoSFSize=1
 
TABLE:  "AUTO WAVE 3 - WAVE CHARACTERISTICS - GENERAL"
   WaveChar=Default   WaveType="From Theory"   KinFactor=1   SWaterDepth=150   WaveHeight=60   WavePeriod=12   WaveTheory=Linear
 
TABLE:  "CASE - MODAL 1 - GENERAL"
   Case=MODAL   ModeType=Eigen   MaxNumModes=12   MinNumModes=1   EigenShift=0   EigenCutoff=0   EigenTol=1E-09   AutoShift=Yes
 
TABLE:  "CASE - STATIC 1 - LOAD ASSIGNMENTS"
   Case=DEAD   LoadType="Load pattern"   LoadName=DEAD   LoadSF=1
   Case=TOP_LOAD   LoadType="Load pattern"   LoadName=TOP_LOAD   LoadSF=1
 
TABLE:  "CONNECTIVITY - AREA"
   Area=1   Joint1=2   Joint2=17   Joint3=20   Joint4=5   GUID=0035c071-009b-4f81-a09b-9afa30b130fe
   Area=2   Joint1=5   Joint2=20   Joint3=23   Joint4=8   GUID=15808641-0353-4898-af5f-0272e16c6c09
   Area=3   Joint1=8   Joint2=23   Joint3=26   Joint4=11   GUID=f98ce10a-36b2-4a8e-800a-369b7f2ac78d
   Area=4   Joint1=11   Joint2=26   Joint3=29   Joint4=14   GUID=5a9bda03-de3c-42fc-a172-a2fb732cafde
   Area=5   Joint1=17   Joint2=32   Joint3=35   Joint4=20   GUID=9d1712d3-fd1c-4a4e-a8d8-fa3a03b9ce84
   Area=6   Joint1=20   Joint2=35   Joint3=38   Joint4=23   GUID=6c695244-e4e2-40b5-a1bd-92c8f902f7cc
   Area=7   Joint1=23   Joint2=38   Joint3=41   Joint4=26   GUID=535fea51-7d4b-478f-b61e-2709d3219d0e
   Area=8   Joint1=26   Joint2=41   Joint3=44   Joint4=29   GUID=1d973970-6a8b-4c87-9f92-a4d1383f4a00
   Area=9   Joint1=32   Joint2=47   Joint3=50   Joint4=35   GUID=2db4cd70-f89f-43c3-872c-33a8d2c52772
   Area=10   Joint1=35   Joint2=50   Joint3=53   Joint4=38   GUID=efc5008f-c51d-4077-a23a-35047c467bc0
   Area=11   Joint1=38   Joint2=53   Joint3=56   Joint4=41   GUID=81a52d1c-a9e9-425a-ba93-5a4f808db3ab
   Area=12   Joint1=41   Joint2=56   Joint3=59   Joint4=44   GUID=da9c912b-8d17-4668-b9a7-93558a4baf5e
   Area=13   Joint1=47   Joint2=62   Joint3=65   Joint4=50   GUID=3f782ec8-4b08-4d88-9d3c-1a80a092fd8b
   Area=14   Joint1=50   Joint2=65   Joint3=68   Joint4=53   GUID=7bcbe23c-82e6-4f0d-8200-da1f59f526bb
   Area=15   Joint1=53   Joint2=68   Joint3=71   Joint4=56   GUID=fcd078e5-c4e6-4eba-ab4d-a2a6c07d4e7c
   Area=16   Joint1=56   Joint2=71   Joint3=74   Joint4=59   GUID=b47fa4c5-6957-44be-934f-3e075df5e62f
   Area=17   Joint1=3   Joint2=18   Joint3=21   Joint4=6   GUID=6e6c1385-a8a3-4d68-a647-a4be6209261a
   Area=18   Joint1=6   Joint2=21   Joint3=24   Joint4=9   GUID=265c8342-0a5a-4c80-a511-5793237f46af
   Area=19   Joint1=9   Joint2=24   Joint3=27   Joint4=12   GUID=275afe90-ab81-43f0-866e-37e910775b3d
   Area=20   Joint1=12   Joint2=27   Joint3=30   Joint4=15   GUID=406b718a-5a6b-44c4-8649-875b428ba569
   Area=21   Joint1=18   Joint2=33   Joint3=36   Joint4=21   GUID=ef9b60c5-12ab-4127-ab6b-fb0364ef0402
   Area=22   Joint1=21   Joint2=36   Joint3=39   Joint4=24   GUID=4aa12046-90fe-44d9-8e4b-b2c5aceb7caf
   Area=23   Joint1=24   Joint2=39   Joint3=42   Joint4=27   GUID=43ecc7ee-6367-41a7-942a-ea6f07ab8e70
   Area=24   Joint1=27   Joint2=42   Joint3=45   Joint4=30   GUID=21a202a3-97be-4648-b33c-2aad59bc321c
   Area=25   Joint1=33   Joint2=48   Joint3=51   Joint4=36   GUID=6beba3cd-04d6-4e40-9011-acb6919cc3cb
   Area=26   Joint1=36   Joint2=51   Joint3=54   Joint4=39   GUID=e328ec53-6bcd-4fe6-aa42-4d969d880489
   Area=27   Joint1=39   Joint2=54   Joint3=57   Joint4=42   GUID=94f749f6-f446-4977-8be1-bd65c4ed4651
   Area=28   Joint1=42   Joint2=57   Joint3=60   Joint4=45   GUID=b32694fe-1e8b-4827-a4c3-7cc0e819eb1d
   Area=29   Joint1=48   Joint2=63   Joint3=66   Joint4=51   GUID=594e9177-6685-49e0-a7e2-cc1181d68e24
   Area=30   Joint1=51   Joint2=66   Joint3=69   Joint4=54   GUID=23cc6cd1-fd54-43af-83b5-79874bf7e3eb
   Area=31   Joint1=54   Joint2=69   Joint3=72   Joint4=57   GUID=a33383b7-6d11-4f39-9feb-64d849b14a7f
   Area=32   Joint1=57   Joint2=72   Joint3=75   Joint4=60   GUID=ecb8066d-71d2-438a-a508-359aae177336
 
TABLE:  "CONNECTIVITY - FRAME"
   Frame=1   JointI=1   JointJ=2   IsCurved=No   GUID=aa30b901-a93d-4196-ae6b-52235dfbbe9a
   Frame=2   JointI=2   JointJ=3   IsCurved=No   GUID=53881ffe-0ceb-4c13-a3b4-b5078b50eaa1
   Frame=3   JointI=4   JointJ=5   IsCurved=No   GUID=4749f6f4-ae08-4441-bb48-d82707d17f27
   Frame=4   JointI=5   JointJ=6   IsCurved=No   GUID=46f5ad6d-26ab-4104-a3d0-ec8ddb7cdaa7
   Frame=5   JointI=7   JointJ=8   IsCurved=No   GUID=9e660773-ef47-471b-809c-75b335b24c4f
   Frame=6   JointI=8   JointJ=9   IsCurved=No   GUID=484bf932-f893-43fc-b8ee-a664114a7613
   Frame=7   JointI=10   JointJ=11   IsCurved=No   GUID=8b0b29c3-df23-48dd-8cff-fde9c798183e
   Frame=8   JointI=11   JointJ=12   IsCurved=No   GUID=3a376f87-86d4-45e3-b3cb-33570d97cdaf
   Frame=9   JointI=13   JointJ=14   IsCurved=No   GUID=5a475a3a-bb12-4a7b-8eb4-e33edd786711
   Frame=10   JointI=14   JointJ=15   IsCurved=No   GUID=ee6196c2-2f0b-443b-a292-c989456dda9b
   Frame=11   JointI=16   JointJ=17   IsCurved=No   GUID=2866a5d6-81b4-42f6-8d3d-8321e342abdf
   Frame=12   JointI=17   JointJ=18   IsCurved=No   GUID=499b693d-f14e-4be7-9360-e6a92ed4380e
   Frame=13   JointI=19   JointJ=20   IsCurved=No   GUID=cf641897-2e20-4de5-b696-7779307e3456
   Frame=14   JointI=20   JointJ=21   IsCurved=No   GUID=25c23df4-935e-4810-b41f-fa29b35c2c53
   Frame=15   JointI=22   JointJ=23   IsCurved=No   GUID=1f548e44-77e7-46e2-a41d-b2f300d13dc4
   Frame=16   JointI=23   JointJ=24   IsCurved=No   GUID=1a9250e8-4d4f-4142-8991-dcbeec894fb3
   Frame=17   JointI=25   JointJ=26   IsCurved=No   GUID=90597af1-20d1-4a03-897f-ac3c7862d0d4
   Frame=18   JointI=26   JointJ=27   IsCurved=No   GUID=aafe0c77-7100-46bb-84f1-f3955f655d17
   Frame=19   JointI=28   JointJ=29   IsCurved=No   GUID=076f172a-05f0-4076-bb0a-8089f88ce226
   Frame=20   JointI=29   JointJ=30   IsCurved=No   GUID=107fe58a-f9b6-40f0-a7be-6bd9da6f5aa3
   Frame=21   JointI=31   JointJ=32   IsCurved=No   GUID=a14ae51c-5c16-47f7-9db2-1641009ea90d
   Frame=22   JointI=32   JointJ=33   IsCurved=No   GUID=40fa381b-56aa-4735-aafc-f99b66f4597c
   Frame=23   JointI=34   JointJ=35   IsCurved=No   GUID=07c7e00d-a172-41a1-8f45-ecc3dd2dfc7c
   Frame=24   JointI=35   JointJ=36   IsCurved=No   GUID=e84498ee-0dad-4593-a1e1-a4c0b078a33c
   Frame=25   JointI=37   JointJ=38   IsCurved=No   GUID=27345689-d211-4406-ac84-bbb840e364f0
   Frame=26   JointI=38   JointJ=39   IsCurved=No   GUID=1d6e57c7-318f-4eed-894d-8c5109259d13
   Frame=27   JointI=40   JointJ=41   IsCurved=No   GUID=02d8cfa8-adc2-445d-9b93-aaf32943ece2
   Frame=28   JointI=41   JointJ=42   IsCurved=No   GUID=02054be6-c849-4d4c-9050-02eed35d7e69
   Frame=29   JointI=43   JointJ=44   IsCurved=No   GUID=fe1b3762-2f11-4215-a010-0fcfc468cc4b
   Frame=30   JointI=44   JointJ=45   IsCurved=No   GUID=850ced75-568d-40ac-9d94-c8731b37e44f
   Frame=31   JointI=46   JointJ=47   IsCurved=No   GUID=7c7a311b-f39f-49e3-abf8-f742e5559575
   Frame=32   JointI=47   JointJ=48   IsCurved=No   GUID=9c29f6ed-771e-443a-840d-1d66ec7e9276
   Frame=33   JointI=49   JointJ=50   IsCurved=No   GUID=7f9aed15-d947-488c-ac66-df421f6254a4
   Frame=34   JointI=50   JointJ=51   IsCurved=No   GUID=8c56ea7e-857e-46b6-a038-e96028ebb881
   Frame=35   JointI=52   JointJ=53   IsCurved=No   GUID=efa092ac-9048-4a91-88cd-ab2133204aa2
   Frame=36   JointI=53   JointJ=54   IsCurved=No   GUID=b0e54fd5-9099-4c21-8175-35063834c129
   Frame=37   JointI=55   JointJ=56   IsCurved=No   GUID=df27cf60-ee22-4ecb-a856-727ce00ae486
   Frame=38   JointI=56   JointJ=57   IsCurved=No   GUID=cabc1eac-412d-460a-a002-1b08c33c4f71
   Frame=39   JointI=58   JointJ=59   IsCurved=No   GUID=51eae945-113b-4378-8a35-0270cbf7726e
   Frame=40   JointI=59   JointJ=60   IsCurved=No   GUID=e0be47ae-099f-423f-9f7f-a94995315f34
   Frame=41   JointI=61   JointJ=62   IsCurved=No   GUID=04b8f9b2-d5b1-4934-b3f5-daa31ac8ad8c
   Frame=42   JointI=62   JointJ=63   IsCurved=No   GUID=7fb6c416-48df-45a7-99e0-7ef6c3079d80
   Frame=43   JointI=64   JointJ=65   IsCurved=No   GUID=69a02230-ca9b-4964-84be-708ab364078e
   Frame=44   JointI=65   JointJ=66   IsCurved=No   GUID=db0b52b5-6561-4e9e-a690-c2eda25e3a65
   Frame=45   JointI=67   JointJ=68   IsCurved=No   GUID=6960f8ae-98e6-4376-9510-d1880a854625
   Frame=46   JointI=68   JointJ=69   IsCurved=No   GUID=66cfcd0a-226c-4752-bd0a-e1b149772f46
   Frame=47   JointI=70   JointJ=71   IsCurved=No   GUID=fa82245c-968b-4b3e-8157-eeedea87b14c
   Frame=48   JointI=71   JointJ=72   IsCurved=No   GUID=836658d7-1771-4935-9c90-720dd7962bae
   Frame=49   JointI=73   JointJ=74   IsCurved=No   GUID=215a0173-39d6-4d95-a562-296429ab9980
   Frame=50   JointI=74   JointJ=75   IsCurved=No   GUID=61ee026c-d944-421a-b821-bdca6a66fb35
   Frame=51   JointI=2   JointJ=17   IsCurved=No   GUID=0df6d9ee-9731-462e-83be-e5873480886e
   Frame=52   JointI=3   JointJ=18   IsCurved=No   GUID=d7e501f7-c28f-453b-92b9-222855abbb71
   Frame=53   JointI=17   JointJ=32   IsCurved=No   GUID=d7ed68c5-3ba5-49ca-b6d4-778b5bc5b1da
   Frame=54   JointI=18   JointJ=33   IsCurved=No   GUID=032a9776-6c73-4138-8478-3c371c2a9d63
   Frame=55   JointI=32   JointJ=47   IsCurved=No   GUID=6f2dad51-a995-4100-8a9c-ce2e0934c411
   Frame=56   JointI=33   JointJ=48   IsCurved=No   GUID=87a5ccb4-9491-4927-8c08-b9407e6ab52a
   Frame=57   JointI=47   JointJ=62   IsCurved=No   GUID=69d5a2ba-aa98-4f8f-a756-f1e057f9fa78
   Frame=58   JointI=48   JointJ=63   IsCurved=No   GUID=35ac9ae9-4934-4b72-9ad6-135af579c0e6
   Frame=59   JointI=5   JointJ=20   IsCurved=No   GUID=7bcd6df7-d504-4938-a227-2f6fcd751478
   Frame=60   JointI=6   JointJ=21   IsCurved=No   GUID=da363d5f-70df-46e5-a613-03a77983e8d1
   Frame=61   JointI=20   JointJ=35   IsCurved=No   GUID=f6b44c70-a029-49b0-a970-2db58300ef3a
   Frame=62   JointI=21   JointJ=36   IsCurved=No   GUID=da833af7-d12e-4a76-ba3a-6262da3188ce
   Frame=63   JointI=35   JointJ=50   IsCurved=No   GUID=ae6fd34b-8ec3-4af0-8b93-b34c655d6d45
   Frame=64   JointI=36   JointJ=51   IsCurved=No   GUID=1386315c-2d22-4cac-95f0-57a26a0595f5
   Frame=65   JointI=50   JointJ=65   IsCurved=No   GUID=e70f3678-e2a0-40b2-b2ac-a5fa4edb36bc
   Frame=66   JointI=51   JointJ=66   IsCurved=No   GUID=dffca499-e5d4-43a2-a696-68fe241c84cb
   Frame=67   JointI=8   JointJ=23   IsCurved=No   GUID=d33faba8-59a5-43da-bf82-7bf0ab3c11c3
   Frame=68   JointI=9   JointJ=24   IsCurved=No   GUID=4505a4f3-9148-4959-86a2-38e6ed246830
   Frame=69   JointI=23   JointJ=38   IsCurved=No   GUID=680ea320-152d-4f1b-a5bd-46d79ba8e340
   Frame=70   JointI=24   JointJ=39   IsCurved=No   GUID=7beecf4a-ef65-4331-b4a9-6eb5f678adfd
   Frame=71   JointI=38   JointJ=53   IsCurved=No   GUID=bc523327-420b-40d6-a43f-6564699a92fe
   Frame=72   JointI=39   JointJ=54   IsCurved=No   GUID=1c59871a-0fe2-4561-8393-d9b5e23f90f5
   Frame=73   JointI=53   JointJ=68   IsCurved=No   GUID=3f72f236-2d24-420e-b1bc-d175a52a697b
   Frame=74   JointI=54   JointJ=69   IsCurved=No   GUID=b9415cef-0257-496c-8eae-2bf56638d51b
   Frame=75   JointI=11   JointJ=26   IsCurved=No   GUID=9f58ec1e-f7aa-4093-8ba8-0d2452615a09
   Frame=76   JointI=12   JointJ=27   IsCurved=No   GUID=355311d2-b515-4259-a97a-e87e6e2008dd
   Frame=77   JointI=26   JointJ=41   IsCurved=No   GUID=808db4b5-4d91-4689-b821-33d9e3121140
   Frame=78   JointI=27   JointJ=42   IsCurved=No   GUID=44a00286-21a3-4437-94d4-8766750b3c3f
   Frame=79   JointI=41   JointJ=56   IsCurved=No   GUID=92adbc0a-ce41-43d8-a565-ba61458bfe73
   Frame=80   JointI=42   JointJ=57   IsCurved=No   GUID=4cb39c04-c38e-4966-aa2c-c03bb97e465f
   Frame=81   JointI=56   JointJ=71   IsCurved=No   GUID=57586ec7-0487-4f72-9af5-0932325a8eb1
   Frame=82   JointI=57   JointJ=72   IsCurved=No   GUID=7b03412c-a224-4e43-810c-848983fbdac9
   Frame=83   JointI=14   JointJ=29   IsCurved=No   GUID=c75e94c5-7eb3-4e10-b015-42f08c04c268
   Frame=84   JointI=15   JointJ=30   IsCurved=No   GUID=4397d96c-680f-490d-ae96-f0331b370d30
   Frame=85   JointI=29   JointJ=44   IsCurved=No   GUID=60f7de64-9b5e-4ad8-a5fd-1c6e74f0d770
   Frame=86   JointI=30   JointJ=45   IsCurved=No   GUID=1e25ef86-4aa0-41a5-8c68-82e81485c64a
   Frame=87   JointI=44   JointJ=59   IsCurved=No   GUID=69253b23-7990-4ece-8e89-2a4104db4af6
   Frame=88   JointI=45   JointJ=60   IsCurved=No   GUID=c0f4c0f1-857a-4f69-9441-124909ebc952
   Frame=89   JointI=59   JointJ=74   IsCurved=No   GUID=df94aa90-f8ab-48b4-ba7d-3ec0e0155f08
   Frame=90   JointI=60   JointJ=75   IsCurved=No   GUID=8dd8f868-1a36-4a55-a454-30e295125c97
   Frame=91   JointI=2   JointJ=5   IsCurved=No   GUID=51310a69-b162-4bea-93cd-491c68963bec
   Frame=92   JointI=3   JointJ=6   IsCurved=No   GUID=1841b16e-34e2-4470-a0b5-f3428ec7e2ed
   Frame=93   JointI=5   JointJ=8   IsCurved=No   GUID=4a4b3aaa-3392-407d-8620-08115cc7f262
   Frame=94   JointI=6   JointJ=9   IsCurved=No   GUID=ae0ba703-473d-45f1-b606-834c649590ff
   Frame=95   JointI=8   JointJ=11   IsCurved=No   GUID=dbe2db56-aaef-47e4-9557-39dca55b12cb
   Frame=96   JointI=9   JointJ=12   IsCurved=No   GUID=b644df6f-ace6-4ecd-b10d-2fdf070f23fd
   Frame=97   JointI=11   JointJ=14   IsCurved=No   GUID=eab38834-e07f-4a58-bf6a-8564362aaac2
   Frame=98   JointI=12   JointJ=15   IsCurved=No   GUID=dd0af104-0ca6-405e-92d7-6b67a40809e6
   Frame=99   JointI=17   JointJ=20   IsCurved=No   GUID=7da4dec9-037c-424f-9581-58c6acd5de18
   Frame=100   JointI=18   JointJ=21   IsCurved=No   GUID=cb02ea04-f26f-47d9-99db-e444545e5889
   Frame=101   JointI=20   JointJ=23   IsCurved=No   GUID=9f15f25a-7235-487a-9231-008ec6fec349
   Frame=102   JointI=21   JointJ=24   IsCurved=No   GUID=d80d2e21-823d-47d5-b5e0-a711823f6e9d
   Frame=103   JointI=23   JointJ=26   IsCurved=No   GUID=7ec4a413-7f7b-4213-aa10-2d5758b0b5cb
   Frame=104   JointI=24   JointJ=27   IsCurved=No   GUID=f5e38720-7ce8-48ad-9793-fbc702c9ba3b
   Frame=105   JointI=26   JointJ=29   IsCurved=No   GUID=746222b8-b424-4e39-adb4-80ae4f2803bc
   Frame=106   JointI=27   JointJ=30   IsCurved=No   GUID=1c086098-bb78-4213-b0a8-a1962277b3c2
   Frame=107   JointI=32   JointJ=35   IsCurved=No   GUID=1e739793-8cc0-46ef-9f4c-95e3945e2b52
   Frame=108   JointI=33   JointJ=36   IsCurved=No   GUID=89ca47c8-55cf-435e-b368-3464553b8292
   Frame=109   JointI=35   JointJ=38   IsCurved=No   GUID=5aa4833e-afe6-4192-9539-d09321f0ec60
   Frame=110   JointI=36   JointJ=39   IsCurved=No   GUID=ef2891cc-01ab-48e4-b3e7-b60cff79fcd4
   Frame=111   JointI=38   JointJ=41   IsCurved=No   GUID=4e60fbf0-8d32-431d-904e-544cdc8766eb
   Frame=112   JointI=39   JointJ=42   IsCurved=No   GUID=66e1c85c-947d-454c-abc2-ec4479554b58
   Frame=113   JointI=41   JointJ=44   IsCurved=No   GUID=33109049-e873-427a-b797-703dc83a7e27
   Frame=114   JointI=42   JointJ=45   IsCurved=No   GUID=98e10c07-1493-47f6-985a-c436371a2c38
   Frame=115   JointI=47   JointJ=50   IsCurved=No   GUID=01a40643-efa1-41e1-ab25-2ddeecfe4481
   Frame=116   JointI=48   JointJ=51   IsCurved=No   GUID=25665d3a-66a7-4609-8049-0c112d6aaf38
   Frame=117   JointI=50   JointJ=53   IsCurved=No   GUID=1fc6ca42-e542-47f4-bbfc-27ff335650ed
   Frame=118   JointI=51   JointJ=54   IsCurved=No   GUID=64e7ccb8-b926-40a7-b338-9430c965a787
   Frame=119   JointI=53   JointJ=56   IsCurved=No   GUID=9bbb7895-ed1b-4222-987f-09ea641b23ff
   Frame=120   JointI=54   JointJ=57   IsCurved=No   GUID=9d9ed936-b3cf-469b-959b-3a4e7de00d5b
   Frame=121   JointI=56   JointJ=59   IsCurved=No   GUID=e9e39c12-064a-4ccc-b10f-5fa991683950
   Frame=122   JointI=57   JointJ=60   IsCurved=No   GUID=8bb6f39f-59be-44f7-9cc7-5f01499d221e
   Frame=123   JointI=62   JointJ=65   IsCurved=No   GUID=b22e3b25-371b-4cd6-acc0-1e526e5b23af
   Frame=124   JointI=63   JointJ=66   IsCurved=No   GUID=7d52f14b-0f53-46a0-91cb-b745dd7a3373
   Frame=125   JointI=65   JointJ=68   IsCurved=No   GUID=24b52092-49e7-4beb-babb-c2152071cdd1
   Frame=126   JointI=66   JointJ=69   IsCurved=No   GUID=013159b7-db20-4a24-82f6-b1be33746ab1
   Frame=127   JointI=68   JointJ=71   IsCurved=No   GUID=04fe6811-b055-4709-b4d5-904edf8ceb18
   Frame=128   JointI=69   JointJ=72   IsCurved=No   GUID=2bb09c6f-30a8-43d9-b462-1ce0424215b6
   Frame=129   JointI=71   JointJ=74   IsCurved=No   GUID=9bbbe8f8-d3d5-44af-b29b-5aca37a6f407
   Frame=130   JointI=72   JointJ=75   IsCurved=No   GUID=f6cb5ec4-b044-4082-a7d3-cbc6df1d3b75
 
TABLE:  "COORDINATE SYSTEMS"
   Name=GLOBAL   Type=Cartesian   X=0   Y=0   Z=0   AboutZ=0   AboutY=0   AboutX=0
 
TABLE:  "DATABASE DOCUMENTATION"
 
TABLE:  "DATABASE FORMAT TYPES"
   UnitsCurr=Yes   OverrideE=No
 
TABLE:  "FRAME AUTO MESH ASSIGNMENTS"
   Frame=1   AutoMesh=Yes   AtJoints=Yes   AtFrames=No   NumSegments=0   MaxLength=0   MaxDegrees=0
   Frame=2   AutoMesh=Yes   AtJoints=Yes   AtFrames=No   NumSegments=0   MaxLength=0   MaxDegrees=0
   Frame=3   AutoMesh=Yes   AtJoints=Yes   AtFrames=No   NumSegments=0   MaxLength=0   MaxDegrees=0
   Frame=4   AutoMesh=Yes   AtJoints=Yes   AtFrames=No   NumSegments=0   MaxLength=0   MaxDegrees=0
   Frame=5   AutoMesh=Yes   AtJoints=Yes   AtFrames=No   NumSegments=0   MaxLength=0   MaxDegrees=0
   Frame=6   AutoMesh=Yes   AtJoints=Yes   AtFrames=No   NumSegments=0   MaxLength=0   MaxDegrees=0
   Frame=7   AutoMesh=Yes   AtJoints=Yes   AtFrames=No   NumSegments=0   MaxLength=0   MaxDegrees=0
   Frame=8   AutoMesh=Yes   AtJoints=Yes   AtFrames=No   NumSegments=0   MaxLength=0   MaxDegrees=0
   Frame=9   AutoMesh=Yes   AtJoints=Yes   AtFrames=No   NumSegments=0   MaxLength=0   MaxDegrees=0
   Frame=10   AutoMesh=Yes   AtJoints=Yes   AtFrames=No   NumSegments=0   MaxLength=0   MaxDegrees=0
   Frame=11   AutoMesh=Yes   AtJoints=Yes   AtFrames=No   NumSegments=0   MaxLength=0   MaxDegrees=0
   Frame=12   AutoMesh=Yes   AtJoints=Yes   AtFrames=No   NumSegments=0   MaxLength=0   MaxDegrees=0
   Frame=13   AutoMesh=Yes   AtJoints=Yes   AtFrames=No   NumSegments=0   MaxLength=0   MaxDegrees=0
   Frame=14   AutoMesh=Yes   AtJoints=Yes   AtFrames=No   NumSegments=0   MaxLength=0   MaxDegrees=0
   Frame=15   AutoMesh=Yes   AtJoints=Yes   AtFrames=No   NumSegments=0   MaxLength=0   MaxDegrees=0
   Frame=16   AutoMesh=Yes   AtJoints=Yes   AtFrames=No   NumSegments=0   MaxLength=0   MaxDegrees=0
   Frame=17   AutoMesh=Yes   AtJoints=Yes   AtFrames=No   NumSegments=0   MaxLength=0   MaxDegrees=0
   Frame=18   AutoMesh=Yes   AtJoints=Yes   AtFrames=No   NumSegments=0   MaxLength=0   MaxDegrees=0
   Frame=19   AutoMesh=Yes   AtJoints=Yes   AtFrames=No   NumSegments=0   MaxLength=0   MaxDegrees=0
   Frame=20   AutoMesh=Yes   AtJoints=Yes   AtFrames=No   NumSegments=0   MaxLength=0   MaxDegrees=0
# ... 110 like lines cut
 
TABLE:  "FRAME DESIGN PROCEDURES"
   Frame=1   DesignProc="From Material"
   Frame=2   DesignProc="From Material"
   Frame=3   DesignProc="From Material"
   Frame=4   DesignProc="From Material"
   Frame=5   DesignProc="From Material"
   Frame=6   DesignProc="From Material"
   Frame=7   DesignProc="From Material"
   Frame=8   DesignProc="From Material"
   Frame=9   DesignProc="From Material"
   Frame=10   DesignProc="From Material"
   Frame=11   DesignProc="From Material"
   Frame=12   DesignProc="From Material"
   Frame=13   DesignProc="From Material"
   Frame=14   DesignProc="From Material"
   Frame=15   DesignProc="From Material"
   Frame=16   DesignProc="From Material"
   Frame=17   DesignProc="From Material"
   Frame=18   DesignProc="From Material"
   Frame=19   DesignProc="From Material"
   Frame=20   DesignProc="From Material"
# ... 110 like lines cut
 
TABLE:  "FRAME LOAD TRANSFER OPTIONS"
   Frame=1   Transfer=Yes
   Frame=2   Transfer=Yes
   Frame=3   Transfer=Yes
   Frame=4   Transfer=Yes
   Frame=5   Transfer=Yes
   Frame=6   Transfer=Yes
   Frame=7   Transfer=Yes
   Frame=8   Transfer=Yes
   Frame=9   Transfer=Yes
   Frame=10   Transfer=Yes
   Frame=11   Transfer=Yes
   Frame=12   Transfer=Yes
   Frame=13   Transfer=Yes
   Frame=14   Transfer=Yes
   Frame=15   Transfer=Yes
   Frame=16   Transfer=Yes
   Frame=17   Transfer=Yes
   Frame=18   Transfer=Yes
   Frame=19   Transfer=Yes
   Frame=20   Transfer=Yes
# ... 110 like lines cut
 
TABLE:  "FRAME OUTPUT STATION ASSIGNMENTS"
   Frame=1   StationType=MinNumSta   MinNumSta=3   AddAtElmInt=Yes   AddAtPtLoad=Yes
   Frame=2   StationType=MinNumSta   MinNumSta=3   AddAtElmInt=Yes   AddAtPtLoad=Yes
   Frame=3   StationType=MinNumSta   MinNumSta=3   AddAtElmInt=Yes   AddAtPtLoad=Yes
   Frame=4   StationType=MinNumSta   MinNumSta=3   AddAtElmInt=Yes   AddAtPtLoad=Yes
   Frame=5   StationType=MinNumSta   MinNumSta=3   AddAtElmInt=Yes   AddAtPtLoad=Yes
   Frame=6   StationType=MinNumSta   MinNumSta=3   AddAtElmInt=Yes   AddAtPtLoad=Yes
   Frame=7   StationType=MinNumSta   MinNumSta=3   AddAtElmInt=Yes   AddAtPtLoad=Yes
   Frame=8   StationType=MinNumSta   MinNumSta=3   AddAtElmInt=Yes   AddAtPtLoad=Yes
   Frame=9   StationType=MinNumSta   MinNumSta=3   AddAtElmInt=Yes   AddAtPtLoad=Yes
   Frame=10   StationType=MinNumSta   MinNumSta=3   AddAtElmInt=Yes   AddAtPtLoad=Yes
   Frame=11   StationType=MinNumSta   MinNumSta=3   AddAtElmInt=Yes   AddAtPtLoad=Yes
   Frame=12   StationType=MinNumSta   MinNumSta=3   AddAtElmInt=Yes   AddAtPtLoad=Yes
   Frame=13   StationType=MinNumSta   MinNumSta=3   AddAtElmInt=Yes   AddAtPtLoad=Yes
   Frame=14   StationType=MinNumSta   MinNumSta=3   AddAtElmInt=Yes   AddAtPtLoad=Yes
   Frame=15   StationType=MinNumSta   MinNumSta=3   AddAtElmInt=Yes   AddAtPtLoad=Yes
   Frame=16   StationType=MinNumSta   MinNumSta=3   AddAtElmInt=Yes   AddAtPtLoad=Yes
   Frame=17   StationType=MinNumSta   MinNumSta=3   AddAtElmInt=Yes   AddAtPtLoad=Yes
   Frame=18   StationType=MinNumSta   MinNumSta=3   AddAtElmInt=Yes   AddAtPtLoad=Yes
   Frame=19   StationType=MinNumSta   MinNumSta=3   AddAtElmInt=Yes   AddAtPtLoad=Yes
   Frame=20   StationType=MinNumSta   MinNumSta=3   AddAtElmInt=Yes   AddAtPtLoad=Yes
# ... 30 like lines cut
   Frame=51   StationType=MaxStaSpcg   MaxStaSpcg=2   AddAtElmInt=Yes   AddAtPtLoad=Yes
   Frame=52   StationType=MaxStaSpcg   MaxStaSpcg=2   AddAtElmInt=Yes   AddAtPtLoad=Yes
   Frame=53   StationType=MaxStaSpcg   MaxStaSpcg=2   AddAtElmInt=Yes   AddAtPtLoad=Yes
   Frame=54   StationType=MaxStaSpcg   MaxStaSpcg=2   AddAtElmInt=Yes   AddAtPtLoad=Yes
   Frame=55   StationType=MaxStaSpcg   MaxStaSpcg=2   AddAtElmInt=Yes   AddAtPtLoad=Yes
   Frame=56   StationType=MaxStaSpcg   MaxStaSpcg=2   AddAtElmInt=Yes   AddAtPtLoad=Yes
   Frame=57   StationType=MaxStaSpcg   MaxStaSpcg=2   AddAtElmInt=Yes   AddAtPtLoad=Yes
   Frame=58   StationType=MaxStaSpcg   MaxStaSpcg=2   AddAtElmInt=Yes   AddAtPtLoad=Yes
   Frame=59   StationType=MaxStaSpcg   MaxStaSpcg=2   AddAtElmInt=Yes   AddAtPtLoad=Yes
   Frame=60   StationType=MaxStaSpcg   MaxStaSpcg=2   AddAtElmInt=Yes   AddAtPtLoad=Yes
   Frame=61   StationType=MaxStaSpcg   MaxStaSpcg=2   AddAtElmInt=Yes   AddAtPtLoad=Yes
   Frame=62   StationType=MaxStaSpcg   MaxStaSpcg=2   AddAtElmInt=Yes   AddAtPtLoad=Yes
   Frame=63   StationType=MaxStaSpcg   MaxStaSpcg=2   AddAtElmInt=Yes   AddAtPtLoad=Yes
   Frame=64   StationType=MaxStaSpcg   MaxStaSpcg=2   AddAtElmInt=Yes   AddAtPtLoad=Yes
   Frame=65   StationType=MaxStaSpcg   MaxStaSpcg=2   AddAtElmInt=Yes   AddAtPtLoad=Yes
   Frame=66   StationType=MaxStaSpcg   MaxStaSpcg=2   AddAtElmInt=Yes   AddAtPtLoad=Yes
   Frame=67   StationType=MaxStaSpcg   MaxStaSpcg=2   AddAtElmInt=Yes   AddAtPtLoad=Yes
   Frame=68   StationType=MaxStaSpcg   MaxStaSpcg=2   AddAtElmInt=Yes   AddAtPtLoad=Yes
   Frame=69   StationType=MaxStaSpcg   MaxStaSpcg=2   AddAtElmInt=Yes   AddAtPtLoad=Yes
   Frame=70   StationType=MaxStaSpcg   MaxStaSpcg=2   AddAtElmInt=Yes   AddAtPtLoad=Yes
# ... 60 like lines cut
 
TABLE:  "FRAME SECTION ASSIGNMENTS"
   Frame=1   AutoSelect=N.A.   AnalSect=FSEC1   MatProp=Default
   Frame=2   AutoSelect=N.A.   AnalSect=FSEC1   MatProp=Default
   Frame=3   AutoSelect=N.A.   AnalSect=FSEC1   MatProp=Default
   Frame=4   AutoSelect=N.A.   AnalSect=FSEC1   MatProp=Default
   Frame=5   AutoSelect=N.A.   AnalSect=FSEC1   MatProp=Default
   Frame=6   AutoSelect=N.A.   AnalSect=FSEC1   MatProp=Default
   Frame=7   AutoSelect=N.A.   AnalSect=FSEC1   MatProp=Default
   Frame=8   AutoSelect=N.A.   AnalSect=FSEC1   MatProp=Default
   Frame=9   AutoSelect=N.A.   AnalSect=FSEC1   MatProp=Default
   Frame=10   AutoSelect=N.A.   AnalSect=FSEC1   MatProp=Default
   Frame=11   AutoSelect=N.A.   AnalSect=FSEC1   MatProp=Default
   Frame=12   AutoSelect=N.A.   AnalSect=FSEC1   MatProp=Default
   Frame=13   AutoSelect=N.A.   AnalSect=FSEC1   MatProp=Default
   Frame=14   AutoSelect=N.A.   AnalSect=FSEC1   MatProp=Default
   Frame=15   AutoSelect=N.A.   AnalSect=FSEC1   MatProp=Default
   Frame=16   AutoSelect=N.A.   AnalSect=FSEC1   MatProp=Default
   Frame=17   AutoSelect=N.A.   AnalSect=FSEC1   MatProp=Default
   Frame=18   AutoSelect=N.A.   AnalSect=FSEC1   MatProp=Default
   Frame=19   AutoSelect=N.A.   AnalSect=FSEC1   MatProp=Default
   Frame=20   AutoSelect=N.A.   AnalSect=FSEC1   MatProp=Default
# ... 110 like lines cut
 
TABLE:  "FRAME SECTION PROPERTIES 01 - GENERAL"
   SectionName=FSEC1   Material=A992Fy50   Shape="I/Wide Flange"   t3=1   t2=0.416666666666667   tf=0.0316666666666667   tw=0.0208333333333333   t2b=0.416666666666667   tfb=0.0316666666666667   FilletRadius=0   Area=0.0459027777777778 _
        TorsConst=1.11820239985211E-05   I33=0.00761491904578189   I22=0.000382489490901492   I23=0   AS2=0.0208333333333333   AS3=0.0219907407407407   S33Top=0.0152298380915638   S33Bot=0.0152298380915638   S22Left=0.00183594955632716 _
        S22Right=0.00183594955632716   Z33=0.0173461226851852   Z22=0.00285047743055555   R33=0.407298829174586   R22=0.0912830767686939   CGOffset3=0   CGOffset2=0   EccV2=0   EccV3=0   Cw=8.94967259257473E-05   Color=Red   FromFile=No _
        AMod=1   A2Mod=1   A3Mod=1   JMod=1   I2Mod=1   I3Mod=1   MMod=1   WMod=1   GUID=d3e76918-7068-4bd6-99e6-cdd2cb3d7c77   Notes="Added 8/13/2025 11:56:51 PM"
 
TABLE:  "FRAME SECTION PROPERTIES 13 - TIME DEPENDENT"
   SectionName=FSEC1   TypeSize=Auto   AutoSFSize=1
 
TABLE:  "FUNCTION - PLOT FUNCTIONS"
   PlotFunc="Input Energy"   Type=Energy   Component=Input   Mode=All
 
TABLE:  "FUNCTION - POWER SPECTRAL DENSITY - USER"
   Name=UNIFPSD   Frequency=0   Value=1
   Name=UNIFPSD   Frequency=1   Value=1
 
TABLE:  "FUNCTION - RESPONSE SPECTRUM - USER"
   Name=UNIFRS   Period=0   Accel=1   FuncDamp=0.05
   Name=UNIFRS   Period=1   Accel=1
 
TABLE:  "FUNCTION - STEADY STATE - USER"
   Name=UNIFSS   Frequency=0   Value=1
   Name=UNIFSS   Frequency=1   Value=1
 
TABLE:  "FUNCTION - TIME HISTORY - USER"
   Name=RAMPTH   Time=0   Value=0
   Name=RAMPTH   Time=1   Value=1
   Name=RAMPTH   Time=4   Value=1
   Name=UNIFTH   Time=0   Value=1
   Name=UNIFTH   Time=1   Value=1
 
TABLE:  "GRID LINES"
   CoordSys=GLOBAL   AxisDir=X   GridID=A   XRYZCoord=-40   LineType=Primary   LineColor=Gray8Dark   Visible=No   BubbleLoc=End   AllVisible=Yes   BubbleSize=3.75
   CoordSys=GLOBAL   AxisDir=X   GridID=B   XRYZCoord=-20   LineType=Primary   LineColor=Gray8Dark   Visible=No   BubbleLoc=End
   CoordSys=GLOBAL   AxisDir=X   GridID=C   XRYZCoord=0   LineType=Primary   LineColor=Gray8Dark   Visible=No   BubbleLoc=End
   CoordSys=GLOBAL   AxisDir=X   GridID=D   XRYZCoord=20   LineType=Primary   LineColor=Gray8Dark   Visible=No   BubbleLoc=End
   CoordSys=GLOBAL   AxisDir=X   GridID=E   XRYZCoord=40   LineType=Primary   LineColor=Gray8Dark   Visible=No   BubbleLoc=End
   CoordSys=GLOBAL   AxisDir=Y   GridID=1   XRYZCoord=-40   LineType=Primary   LineColor=Gray8Dark   Visible=No   BubbleLoc=Start
   CoordSys=GLOBAL   AxisDir=Y   GridID=2   XRYZCoord=-20   LineType=Primary   LineColor=Gray8Dark   Visible=No   BubbleLoc=Start
   CoordSys=GLOBAL   AxisDir=Y   GridID=3   XRYZCoord=0   LineType=Primary   LineColor=Gray8Dark   Visible=No   BubbleLoc=Start
   CoordSys=GLOBAL   AxisDir=Y   GridID=4   XRYZCoord=20   LineType=Primary   LineColor=Gray8Dark   Visible=No   BubbleLoc=Start
   CoordSys=GLOBAL   AxisDir=Y   GridID=5   XRYZCoord=40   LineType=Primary   LineColor=Gray8Dark   Visible=No   BubbleLoc=Start
   CoordSys=GLOBAL   AxisDir=Z   GridID=Z1   XRYZCoord=0   LineType=Primary   LineColor=Gray8Dark   Visible=No   BubbleLoc=End
   CoordSys=GLOBAL   AxisDir=Z   GridID=Z2   XRYZCoord=12   LineType=Primary   LineColor=Gray8Dark   Visible=No   BubbleLoc=End
   CoordSys=GLOBAL   AxisDir=Z   GridID=Z3   XRYZCoord=24   LineType=Primary   LineColor=Gray8Dark   Visible=No   BubbleLoc=End
 
TABLE:  "GROUPS 1 - DEFINITIONS"
   GroupName=ALL   Selection=Yes   SectionCut=Yes   Steel=Yes   Concrete=Yes   Aluminum=Yes   ColdFormed=Yes   Stage=Yes   Bridge=Yes   AutoSeismic=No   AutoWind=No   SelDesSteel=No   SelDesAlum=No   SelDesCold=No   MassWeight=Yes   Color=Red
 
TABLE:  "JOINT COORDINATES"
   Joint=1   CoordSys=GLOBAL   CoordType=Cartesian   XorR=-40   Y=-40   Z=0   SpecialJt=No   GUID=e7f4b702-2fbd-4dfb-8c51-47124e1c5301
   Joint=2   CoordSys=GLOBAL   CoordType=Cartesian   XorR=-40   Y=-40   Z=12   SpecialJt=No   GUID=5209f554-6f0e-43fd-a815-7c4cd850eb82
   Joint=3   CoordSys=GLOBAL   CoordType=Cartesian   XorR=-40   Y=-40   Z=24   SpecialJt=No   GUID=4ce9424c-7b71-4654-96c9-4e05522d9380
   Joint=4   CoordSys=GLOBAL   CoordType=Cartesian   XorR=-40   Y=-20   Z=0   SpecialJt=No   GUID=2b83081a-6507-42ec-800d-c09cae88cf50
   Joint=5   CoordSys=GLOBAL   CoordType=Cartesian   XorR=-40   Y=-20   Z=12   SpecialJt=No   GUID=7d9d3352-a338-4ed7-973f-48acf1b6e1d8
   Joint=6   CoordSys=GLOBAL   CoordType=Cartesian   XorR=-40   Y=-20   Z=24   SpecialJt=No   GUID=40420fde-46ba-480d-9348-86d8daaa2a46
   Joint=7   CoordSys=GLOBAL   CoordType=Cartesian   XorR=-40   Y=0   Z=0   SpecialJt=No   GUID=df971fd2-49b2-4167-a96d-2e805f4b8ea1
   Joint=8   CoordSys=GLOBAL   CoordType=Cartesian   XorR=-40   Y=0   Z=12   SpecialJt=No   GUID=edabee3b-daab-4056-b849-235a3d94c9c6
   Joint=9   CoordSys=GLOBAL   CoordType=Cartesian   XorR=-40   Y=0   Z=24   SpecialJt=No   GUID=73bd968d-d2da-4514-b22d-22ca0ae7c77c
   Joint=10   CoordSys=GLOBAL   CoordType=Cartesian   XorR=-40   Y=20   Z=0   SpecialJt=No   GUID=cf6d8591-8f49-4e5c-ac30-4d36e1a3de7e
   Joint=11   CoordSys=GLOBAL   CoordType=Cartesian   XorR=-40   Y=20   Z=12   SpecialJt=No   GUID=ff3dfa3a-9db8-49c2-b770-c8d02a14c2d5
   Joint=12   CoordSys=GLOBAL   CoordType=Cartesian   XorR=-40   Y=20   Z=24   SpecialJt=No   GUID=b1add22f-534e-4179-8ec8-1c3344f13945
   Joint=13   CoordSys=GLOBAL   CoordType=Cartesian   XorR=-40   Y=40   Z=0   SpecialJt=No   GUID=277537b3-009a-43da-8082-97d958ef92ce
   Joint=14   CoordSys=GLOBAL   CoordType=Cartesian   XorR=-40   Y=40   Z=12   SpecialJt=No   GUID=20c1e9ab-4fe3-44df-8153-6daea6d2809a
   Joint=15   CoordSys=GLOBAL   CoordType=Cartesian   XorR=-40   Y=40   Z=24   SpecialJt=No   GUID=566159c0-668d-4e78-b5e3-a9b36f6682d2
   Joint=16   CoordSys=GLOBAL   CoordType=Cartesian   XorR=-20   Y=-40   Z=0   SpecialJt=No   GUID=be5e2d93-0fe7-4a4c-a215-9ade9f68e752
   Joint=17   CoordSys=GLOBAL   CoordType=Cartesian   XorR=-20   Y=-40   Z=12   SpecialJt=No   GUID=6646544d-a8c5-43cc-bb8d-870e00905e61
   Joint=18   CoordSys=GLOBAL   CoordType=Cartesian   XorR=-20   Y=-40   Z=24   SpecialJt=No   GUID=af386326-696d-43a7-8133-a6a1b45d79ab
   Joint=19   CoordSys=GLOBAL   CoordType=Cartesian   XorR=-20   Y=-20   Z=0   SpecialJt=No   GUID=9d41a643-1c67-4562-925c-b0367735dddc
   Joint=20   CoordSys=GLOBAL   CoordType=Cartesian   XorR=-20   Y=-20   Z=12   SpecialJt=No   GUID=90b18c5b-5914-473e-937a-bb9af4539181
   Joint=21   CoordSys=GLOBAL   CoordType=Cartesian   XorR=-20   Y=-20   Z=24   SpecialJt=No   GUID=ff0676d5-65f5-4d98-b6b1-f271630c785f
   Joint=22   CoordSys=GLOBAL   CoordType=Cartesian   XorR=-20   Y=0   Z=0   SpecialJt=No   GUID=f281e19c-8a69-450a-b7f1-9e5b45e260ef
   Joint=23   CoordSys=GLOBAL   CoordType=Cartesian   XorR=-20   Y=0   Z=12   SpecialJt=No   GUID=599c1c8c-b8a4-4123-a3e4-ce30fd0b84c4
   Joint=24   CoordSys=GLOBAL   CoordType=Cartesian   XorR=-20   Y=0   Z=24   SpecialJt=No   GUID=283e7009-f55c-4943-ab89-3319ec086462
   Joint=25   CoordSys=GLOBAL   CoordType=Cartesian   XorR=-20   Y=20   Z=0   SpecialJt=No   GUID=c60aebb4-c060-49a9-8c20-0e9192c905ae
   Joint=26   CoordSys=GLOBAL   CoordType=Cartesian   XorR=-20   Y=20   Z=12   SpecialJt=No   GUID=409c7b3c-5b0f-468e-85fe-ee3072bfdecf
   Joint=27   CoordSys=GLOBAL   CoordType=Cartesian   XorR=-20   Y=20   Z=24   SpecialJt=No   GUID=5b2e0e5f-c02a-475b-9324-f1535e96b013
   Joint=28   CoordSys=GLOBAL   CoordType=Cartesian   XorR=-20   Y=40   Z=0   SpecialJt=No   GUID=a5534619-11e0-4569-b955-034df33feaea
   Joint=29   CoordSys=GLOBAL   CoordType=Cartesian   XorR=-20   Y=40   Z=12   SpecialJt=No   GUID=c43683f0-dcea-42af-97ac-f8788637e348
   Joint=30   CoordSys=GLOBAL   CoordType=Cartesian   XorR=-20   Y=40   Z=24   SpecialJt=No   GUID=a66f4938-e304-43df-b995-e16f29e3127f
   Joint=31   CoordSys=GLOBAL   CoordType=Cartesian   XorR=0   Y=-40   Z=0   SpecialJt=No   GUID=9e10812d-9075-44f7-920d-632dfbd9f71c
   Joint=32   CoordSys=GLOBAL   CoordType=Cartesian   XorR=0   Y=-40   Z=12   SpecialJt=No   GUID=a7860ffc-925a-43cd-9007-8343ce03ae94
   Joint=33   CoordSys=GLOBAL   CoordType=Cartesian   XorR=0   Y=-40   Z=24   SpecialJt=No   GUID=33a7fc7c-2578-426f-8eec-5f6bb3c9cafa
   Joint=34   CoordSys=GLOBAL   CoordType=Cartesian   XorR=0   Y=-20   Z=0   SpecialJt=No   GUID=524a3692-253d-447f-b0c2-430eb9a6a645
   Joint=35   CoordSys=GLOBAL   CoordType=Cartesian   XorR=0   Y=-20   Z=12   SpecialJt=No   GUID=81d76e97-a2f1-4dac-af1f-af7867ccaae0
   Joint=36   CoordSys=GLOBAL   CoordType=Cartesian   XorR=0   Y=-20   Z=24   SpecialJt=No   GUID=34f16f59-a65f-4867-84ab-4f7a7182c596
   Joint=37   CoordSys=GLOBAL   CoordType=Cartesian   XorR=0   Y=0   Z=0   SpecialJt=No   GUID=39edf361-b622-4bbe-b6d3-e648e442a7ca
   Joint=38   CoordSys=GLOBAL   CoordType=Cartesian   XorR=0   Y=0   Z=12   SpecialJt=No   GUID=496a2dc4-1f19-4850-ae96-023707c47276
   Joint=39   CoordSys=GLOBAL   CoordType=Cartesian   XorR=0   Y=0   Z=24   SpecialJt=No   GUID=63bce455-5e54-4e9e-93a3-d41ab4ad89f2
   Joint=40   CoordSys=GLOBAL   CoordType=Cartesian   XorR=0   Y=20   Z=0   SpecialJt=No   GUID=8567ad48-17d6-4387-a482-530cab684195
   Joint=41   CoordSys=GLOBAL   CoordType=Cartesian   XorR=0   Y=20   Z=12   SpecialJt=No   GUID=3a2617c3-ba79-44b0-868d-22e0430b50a7
   Joint=42   CoordSys=GLOBAL   CoordType=Cartesian   XorR=0   Y=20   Z=24   SpecialJt=No   GUID=2cbc6f63-e8ee-40dd-9364-a716bf54bde4
   Joint=43   CoordSys=GLOBAL   CoordType=Cartesian   XorR=0   Y=40   Z=0   SpecialJt=No   GUID=88df227e-0bc4-4d3d-b653-8ecc1edc9cf4
   Joint=44   CoordSys=GLOBAL   CoordType=Cartesian   XorR=0   Y=40   Z=12   SpecialJt=No   GUID=fee29117-6784-43a4-878a-d943b8647896
   Joint=45   CoordSys=GLOBAL   CoordType=Cartesian   XorR=0   Y=40   Z=24   SpecialJt=No   GUID=cbc35bc7-ae0a-4ec2-8595-9931c47d6f1a
   Joint=46   CoordSys=GLOBAL   CoordType=Cartesian   XorR=20   Y=-40   Z=0   SpecialJt=No   GUID=2764bf55-b2b1-4f66-b90d-5c9805e2fe5c
   Joint=47   CoordSys=GLOBAL   CoordType=Cartesian   XorR=20   Y=-40   Z=12   SpecialJt=No   GUID=733692e4-2458-420e-a2f3-119fc7508068
   Joint=48   CoordSys=GLOBAL   CoordType=Cartesian   XorR=20   Y=-40   Z=24   SpecialJt=No   GUID=5d70ebef-d889-49d1-a6b9-6f514bb21c23
   Joint=49   CoordSys=GLOBAL   CoordType=Cartesian   XorR=20   Y=-20   Z=0   SpecialJt=No   GUID=231780f8-c890-4758-8b1d-8fb8a4f8f6f0
   Joint=50   CoordSys=GLOBAL   CoordType=Cartesian   XorR=20   Y=-20   Z=12   SpecialJt=No   GUID=5de79f9d-0767-41d6-becc-238e6b5c4973
   Joint=51   CoordSys=GLOBAL   CoordType=Cartesian   XorR=20   Y=-20   Z=24   SpecialJt=No   GUID=6f235623-c7f5-4860-8b60-ead76ab2de7c
   Joint=52   CoordSys=GLOBAL   CoordType=Cartesian   XorR=20   Y=0   Z=0   SpecialJt=No   GUID=3f2e0185-3572-4b49-9c42-7850dd8cc838
   Joint=53   CoordSys=GLOBAL   CoordType=Cartesian   XorR=20   Y=0   Z=12   SpecialJt=No   GUID=d51cf87c-49a3-4d2d-ad2c-cb60b4018dfc
   Joint=54   CoordSys=GLOBAL   CoordType=Cartesian   XorR=20   Y=0   Z=24   SpecialJt=No   GUID=1efc554e-cd53-419f-958d-87ff848c5cb3
   Joint=55   CoordSys=GLOBAL   CoordType=Cartesian   XorR=20   Y=20   Z=0   SpecialJt=No   GUID=c3a02897-33a9-4ddb-a083-bc53d6afd4ad
   Joint=56   CoordSys=GLOBAL   CoordType=Cartesian   XorR=20   Y=20   Z=12   SpecialJt=No   GUID=60a84b35-7b8d-4c39-b4d9-80cde62f7473
   Joint=57   CoordSys=GLOBAL   CoordType=Cartesian   XorR=20   Y=20   Z=24   SpecialJt=No   GUID=6019a6d0-06c7-4ab1-acd7-e94a2578d557
   Joint=58   CoordSys=GLOBAL   CoordType=Cartesian   XorR=20   Y=40   Z=0   SpecialJt=No   GUID=8f2e8bd1-98de-43f0-add5-793d915fb9f4
   Joint=59   CoordSys=GLOBAL   CoordType=Cartesian   XorR=20   Y=40   Z=12   SpecialJt=No   GUID=9243438f-e801-4016-8c94-a32beb071432
   Joint=60   CoordSys=GLOBAL   CoordType=Cartesian   XorR=20   Y=40   Z=24   SpecialJt=No   GUID=254050fe-d64e-4228-a2d6-29d6bbe73a32
   Joint=61   CoordSys=GLOBAL   CoordType=Cartesian   XorR=40   Y=-40   Z=0   SpecialJt=No   GUID=b4cd4308-b674-4649-a343-21e1a07e22d8
   Joint=62   CoordSys=GLOBAL   CoordType=Cartesian   XorR=40   Y=-40   Z=12   SpecialJt=No   GUID=0a6fbecc-4854-4bf4-bca3-04a4b5cf46af
   Joint=63   CoordSys=GLOBAL   CoordType=Cartesian   XorR=40   Y=-40   Z=24   SpecialJt=No   GUID=c55f10c1-e92d-4b40-995c-abafefe94f81
   Joint=64   CoordSys=GLOBAL   CoordType=Cartesian   XorR=40   Y=-20   Z=0   SpecialJt=No   GUID=83344f31-9d9f-4e08-9e0d-02bf5b75028a
   Joint=65   CoordSys=GLOBAL   CoordType=Cartesian   XorR=40   Y=-20   Z=12   SpecialJt=No   GUID=9256772f-2242-4977-b2c0-46d221698389
   Joint=66   CoordSys=GLOBAL   CoordType=Cartesian   XorR=40   Y=-20   Z=24   SpecialJt=No   GUID=dcf9e7d6-bfe2-4cad-ad16-ff0d1a602b0b
   Joint=67   CoordSys=GLOBAL   CoordType=Cartesian   XorR=40   Y=0   Z=0   SpecialJt=No   GUID=4a941117-cece-474e-a1f9-f8cad26e9f1a
   Joint=68   CoordSys=GLOBAL   CoordType=Cartesian   XorR=40   Y=0   Z=12   SpecialJt=No   GUID=fcbe5a94-4145-48f4-9964-cc22038a7e82
   Joint=69   CoordSys=GLOBAL   CoordType=Cartesian   XorR=40   Y=0   Z=24   SpecialJt=No   GUID=ea6839c4-cb7d-4ae1-9a7b-1e44be2a37f4
   Joint=70   CoordSys=GLOBAL   CoordType=Cartesian   XorR=40   Y=20   Z=0   SpecialJt=No   GUID=da4f08c7-3e5c-4981-8b26-6f3007481692
   Joint=71   CoordSys=GLOBAL   CoordType=Cartesian   XorR=40   Y=20   Z=12   SpecialJt=No   GUID=843f51e7-e91f-4b1d-a658-430320842e07
   Joint=72   CoordSys=GLOBAL   CoordType=Cartesian   XorR=40   Y=20   Z=24   SpecialJt=No   GUID=f7dd9e5d-7296-4952-b276-a91abe3d74f3
   Joint=73   CoordSys=GLOBAL   CoordType=Cartesian   XorR=40   Y=40   Z=0   SpecialJt=No   GUID=276718a3-9428-4b20-ba8e-97b945ef5ea3
   Joint=74   CoordSys=GLOBAL   CoordType=Cartesian   XorR=40   Y=40   Z=12   SpecialJt=No   GUID=03ef56ff-f4b1-41cd-aa45-bd5374c2945e
   Joint=75   CoordSys=GLOBAL   CoordType=Cartesian   XorR=40   Y=40   Z=24   SpecialJt=No   GUID=20a3f775-1113-4920-9b48-18dfc808133e
 
TABLE:  "JOINT LOADS - FORCE"
   Joint=3   LoadPat=TOP_LOAD   CoordSys=GLOBAL   F1=90   F2=150   F3=0   M1=0   M2=0   M3=0   GUID=de2e0f53-49a8-4be4-bacc-eed694d35ddb
   Joint=6   LoadPat=TOP_LOAD   CoordSys=GLOBAL   F1=90   F2=0   F3=0   M1=0   M2=0   M3=0   GUID=d9b94664-bdd8-41c7-8851-5a679c7b33ce
   Joint=9   LoadPat=TOP_LOAD   CoordSys=GLOBAL   F1=90   F2=0   F3=0   M1=0   M2=0   M3=0   GUID=b9d8e69d-27ba-42f3-b26a-138fd9fe8003
   Joint=12   LoadPat=TOP_LOAD   CoordSys=GLOBAL   F1=90   F2=0   F3=0   M1=0   M2=0   M3=0   GUID=e41066d4-d4aa-4b4c-b8d1-ca63eba64bd2
   Joint=15   LoadPat=TOP_LOAD   CoordSys=GLOBAL   F1=90   F2=0   F3=0   M1=0   M2=0   M3=0   GUID=0e36bde5-5d85-4da0-bbc6-fe97a44d2a41
   Joint=18   LoadPat=TOP_LOAD   CoordSys=GLOBAL   F1=0   F2=150   F3=0   M1=0   M2=0   M3=0   GUID=3589a99e-0508-4de2-a4ab-78eb85df1b62
   Joint=33   LoadPat=TOP_LOAD   CoordSys=GLOBAL   F1=0   F2=150   F3=0   M1=0   M2=0   M3=0   GUID=7c34a3b2-c9aa-4302-b7b9-037a7799865e
   Joint=48   LoadPat=TOP_LOAD   CoordSys=GLOBAL   F1=0   F2=150   F3=0   M1=0   M2=0   M3=0   GUID=19af25b5-7f31-4ae0-bc2e-53030fd38675
   Joint=63   LoadPat=TOP_LOAD   CoordSys=GLOBAL   F1=0   F2=150   F3=0   M1=0   M2=0   M3=0   GUID=e365a11b-3fbc-4c17-a3d0-ce4f07548c65
 
TABLE:  "JOINT PATTERN DEFINITIONS"
   Pattern=Default
 
TABLE:  "JOINT RESTRAINT ASSIGNMENTS"
   Joint=1   U1=Yes   U2=Yes   U3=Yes   R1=No   R2=No   R3=No
   Joint=4   U1=Yes   U2=Yes   U3=Yes   R1=No   R2=No   R3=No
   Joint=7   U1=Yes   U2=Yes   U3=Yes   R1=No   R2=No   R3=No
   Joint=10   U1=Yes   U2=Yes   U3=Yes   R1=No   R2=No   R3=No
   Joint=13   U1=Yes   U2=Yes   U3=Yes   R1=No   R2=No   R3=No
   Joint=16   U1=Yes   U2=Yes   U3=Yes   R1=No   R2=No   R3=No
   Joint=19   U1=Yes   U2=Yes   U3=Yes   R1=No   R2=No   R3=No
   Joint=22   U1=Yes   U2=Yes   U3=Yes   R1=No   R2=No   R3=No
   Joint=25   U1=Yes   U2=Yes   U3=Yes   R1=No   R2=No   R3=No
   Joint=28   U1=Yes   U2=Yes   U3=Yes   R1=No   R2=No   R3=No
   Joint=31   U1=Yes   U2=Yes   U3=Yes   R1=No   R2=No   R3=No
   Joint=34   U1=Yes   U2=Yes   U3=Yes   R1=No   R2=No   R3=No
   Joint=37   U1=Yes   U2=Yes   U3=Yes   R1=No   R2=No   R3=No
   Joint=40   U1=Yes   U2=Yes   U3=Yes   R1=No   R2=No   R3=No
   Joint=43   U1=Yes   U2=Yes   U3=Yes   R1=No   R2=No   R3=No
   Joint=46   U1=Yes   U2=Yes   U3=Yes   R1=No   R2=No   R3=No
   Joint=49   U1=Yes   U2=Yes   U3=Yes   R1=No   R2=No   R3=No
   Joint=52   U1=Yes   U2=Yes   U3=Yes   R1=No   R2=No   R3=No
   Joint=55   U1=Yes   U2=Yes   U3=Yes   R1=No   R2=No   R3=No
   Joint=58   U1=Yes   U2=Yes   U3=Yes   R1=No   R2=No   R3=No
# ... 5 like lines cut
 
TABLE:  "LOAD CASE DEFINITIONS"
   Case=DEAD   Type=LinStatic   InitialCond=Zero   DesTypeOpt="Prog Det"   DesignType=Dead   DesActOpt="Prog Det"   DesignAct=Non-Composite   AutoType=None   RunCase=Yes   GUID=fc1f0401-18aa-4c6b-a6be-b23881e90963
   Case=MODAL   Type=LinModal   InitialCond=Zero   DesTypeOpt="Prog Det"   DesignType=Other   DesActOpt="Prog Det"   DesignAct=Other   AutoType=None   RunCase=Yes   GUID=2be59fae-58f1-4e61-a082-0494aeca41cf
   Case=TOP_LOAD   Type=LinStatic   InitialCond=Zero   DesTypeOpt="Prog Det"   DesignType=Other   DesActOpt="Prog Det"   DesignAct=Other   AutoType=None   RunCase=Yes   GUID=245d2eb1-0441-4ff1-8ad1-176490824b43
 
TABLE:  "LOAD PATTERN DEFINITIONS"
   LoadPat=DEAD   DesignType=Dead   SelfWtMult=1   GUID=b5324ca2-92d8-4659-8601-82a93107906e
   LoadPat=TOP_LOAD   DesignType=Other   SelfWtMult=0   GUID=1cfda8fe-b50a-4c3c-9624-c6e2eba9063b
 
TABLE:  "MASS SOURCE"
   MassSource=MSSSRC1   Elements=Yes   Masses=Yes   Loads=No   IsDefault=Yes
 
TABLE:  "MATERIAL PROPERTIES 01 - GENERAL"
   Material=4000Psi   Type=Concrete   Grade="f'c 4000 psi"   SymType=Isotropic   TempDepend=No   Color=Yellow   GUID=3f74f390-0943-48f9-8078-b31835cdaa9a   Notes="Customary f'c 4000 psi 8/13/2025 11:56:51 PM"
   Material=A992Fy50   Type=Steel   Grade="Grade 50"   SymType=Isotropic   TempDepend=No   Color=Magenta   GUID=ac226097-bd93-4f87-9030-207da2ea8313   Notes="ASTM A992 Grade 50 8/13/2025 11:56:51 PM"
 
TABLE:  "MATERIAL PROPERTIES 02 - BASIC MECHANICAL PROPERTIES"
   Material=4000Psi   UnitWeight=0.15000000000768   UnitMass=0.0046621423155456   E1=519119.496   G12=216299.79   U12=0.2   A1=5.5E-06
   Material=A992Fy50   UnitWeight=0.49   UnitMass=0.0152296649007508   E1=4176000   G12=1606153.84615385   U12=0.3   A1=6.5E-06
 
TABLE:  "MATERIAL PROPERTIES 03A - STEEL DATA"
   Material=A992Fy50   Fy=7200   Fu=9360   EffFy=7920   EffFu=10296   SSCurveOpt=Simple   SSHysType=Kinematic   SHard=0.015   SMax=0.11   SRup=0.17   FinalSlope=-0.1   CoupModType="Von Mises"
 
TABLE:  "MATERIAL PROPERTIES 03B - CONCRETE DATA"
   Material=4000Psi   Fc=576   eFc=576   LtWtConc=No   SSCurveOpt=Mander   SSHysType=Takeda   SFc=0.00221914   SCap=0.005   FinalSlope=-0.1   FAngle=0   DAngle=0   CoupModType="Modified Darwin-Pecknold"
 
TABLE:  "MATERIAL PROPERTIES 03J - COUPLED NONLINEAR VON MISES DATA"
   Material=A992Fy50   YieldStress=7920   LinIsoHard=No   LinKinHard=No   NLIsoSaHard=No
 
TABLE:  "MATERIAL PROPERTIES 06 - DAMPING PARAMETERS"
   Material=4000Psi   ModalRatio=0   VisMass=0   VisStiff=0   HysMass=0   HysStiff=0
   Material=A992Fy50   ModalRatio=0   VisMass=0   VisStiff=0   HysMass=0   HysStiff=0
 
TABLE:  "MATERIAL PROPERTIES 09 - ACCEPTANCE CRITERIA"
   Material=4000Psi   IOTens=0.01   LSTens=0.02   CPTens=0.05   IOComp=-0.003   LSComp=-0.006   CPComp=-0.015   IgnoreTens=Yes
   Material=A992Fy50   IOTens=0.01   LSTens=0.02   CPTens=0.05   IOComp=-0.005   LSComp=-0.01   CPComp=-0.02
 
TABLE:  "OPTIONS - COLORS - DISPLAY"
   DeviceType=Screen   Points=Blue   LinesFrame=Blue   LinesFrmDL=Blue   LinesCable=Green   LinesTendon=Green   SpringLinks=Green   Restraints=Green   Releases=Green   Axes=Cyan   Text=Black   ShadowLines=Gray8Dark   GuideLines=Gray8Dark _
        Highlight=Red   Selection=10504778   AreaFillBot=Red   AreaFillTop=16744703   AreaFillSd=Red   AreaEdge=DarkRed   SolidF1=Red   SolidF2=Blue   SolidF3=Green   SolidF4=Yellow   SolidF5=White   SolidF6=Cyan   SolidEdge=DarkRed _
        Floor=Gray4   Background=White   BGLowLeft=White   BGLowRight=White   BGUpRight=White   Darkness=0
   DeviceType=Printer   Points=Gray8Dark   LinesFrame=Black   LinesFrmDL=Gray4   LinesCable=Black   LinesTendon=Black   SpringLinks=Gray8Dark   Restraints=Gray8Dark   Releases=Gray4   Axes=Black   Text=Black   ShadowLines=Gray4 _
        GuideLines=Gray4   Highlight=Black   Selection=Black   AreaFillBot=Gray4   AreaFillTop=Gray8Dark   AreaFillSd=Gray4   AreaEdge=Black   SolidF1=Gray1Light   SolidF2=Gray2   SolidF3=Gray3   SolidF4=Gray4   SolidF5=Gray5 _
        SolidF6=Gray6   SolidEdge=Black   Floor=Gray4   Background=White   BGLowLeft=White   BGLowRight=White   BGUpRight=White   Darkness=0.5
   DeviceType="Color Printer"   Points=Blue   LinesFrame=Blue   LinesFrmDL=Blue   LinesCable=Green   LinesTendon=Green   SpringLinks=Green   Restraints=Green   Releases=Green   Axes=Cyan   Text=Black   ShadowLines=Gray8Dark _
        GuideLines=Gray8Dark   Highlight=Red   Selection=10504778   AreaFillBot=Red   AreaFillTop=16744703   AreaFillSd=Red   AreaEdge=DarkRed   SolidF1=Red   SolidF2=Blue   SolidF3=Green   SolidF4=Yellow   SolidF5=White   SolidF6=Cyan _
        SolidEdge=DarkRed   Floor=Gray4   Background=White   BGLowLeft=White   BGLowRight=White   BGUpRight=White   Darkness=0.5
 
TABLE:  "OPTIONS - COLORS - OUTPUT"
   DeviceType=Screen   Contour1=13107400   Contour2=6553828   Contour3=Red   Contour4=16639   Contour5=Orange   Contour6=43775   Contour7=54527   Contour8=Yellow   Contour9=65408   Contour10=Green   Contour11=8453888   Contour12=Cyan _
        Contour13=16755200   Contour14=16733440   Contour15=Blue   Transpare=0   Ratio1=Cyan   Ratio2=Green   Ratio3=Yellow   Ratio4=Orange   Ratio5=Red   RatioNotD=Gray4   RatioNotC=Red   RatioVal1=0.5   RatioVal2=0.7   RatioVal3=0.9 _
        RatioVal4=1   DFillPos=Blue   DFillNeg=Red   DFillRPos=9498256   DFillRNeg=9498256
   DeviceType=Printer   Contour1=Black   Contour2=3158064   Contour3=4210752   Contour4=5263440   Contour5=6316128   Contour6=7368816   Contour7=Gray8Dark   Contour8=Gray7   Contour9=Gray6   Contour10=Gray5   Contour11=Gray4 _
        Contour12=Gray3   Contour13=Gray2   Contour14=Gray1Light   Contour15=White   Transpare=0   Ratio1=Gray2   Ratio2=Gray4   Ratio3=Gray8Dark   Ratio4=4210752   Ratio5=Black   RatioNotD=Gray4   RatioNotC=Black   RatioVal1=0.5 _
        RatioVal2=0.7   RatioVal3=0.9   RatioVal4=1   DFillPos=Gray8Dark   DFillNeg=Gray8Dark   DFillRPos=4210752   DFillRNeg=4210752
   DeviceType="Color Printer"   Contour1=13107400   Contour2=6553828   Contour3=Red   Contour4=16639   Contour5=Orange   Contour6=43775   Contour7=54527   Contour8=Yellow   Contour9=65408   Contour10=Green   Contour11=8453888 _
        Contour12=Cyan   Contour13=16755200   Contour14=16733440   Contour15=Blue   Transpare=0   Ratio1=Cyan   Ratio2=Green   Ratio3=Yellow   Ratio4=Orange   Ratio5=Red   RatioNotD=Gray4   RatioNotC=Red   RatioVal1=0.5   RatioVal2=0.7 _
        RatioVal3=0.9   RatioVal4=1   DFillPos=Blue   DFillNeg=Red   DFillRPos=9498256   DFillRNeg=9498256
 
TABLE:  "PREFERENCES - ALUMINUM DESIGN - AA 2015"
   THDesign=Envelopes   SRatioLimit=1   Provision=LRFD   LatFact=1.33333333333333   UseLatFact=No   Bridge=No   PhiTy=0.9   PhiTr=0.75   PhiC=0.9   PhiBo=0.9   PhiBr=0.75   PhiVo=0.9   PhiVr=0.75
 
TABLE:  "PREFERENCES - COLD FORMED DESIGN - AISI-16"
   THDesign=Envelopes   FrameType="Braced Frame"   SRatioLimit=1   SOMethod="General 2nd Order"   Provision=LRFD   LatFact=1.33333333333333   UseLatFact=No   PhiTy=0.9   PhiTr=0.75   PhiC=0.85   PhiB=0.9   PhiBPipe=0.95   PhiV=0.95
 
TABLE:  "PREFERENCES - CONCRETE DESIGN - ACI 318-19"
   THDesign=Envelopes   NumCurves=24   NumPoints=11   MinEccen=Yes   BCCDesign=Yes   IgnoreBPu=Yes   CTorsion=Yes   PatLLF=0.75   UFLimit=0.95   SeisCat=D   Rho=1   Sds=0.5   PhiT=0.9   PhiCTied=0.65   PhiCSpiral=0.75   PhiV=0.75 _
        PhiVSeismic=0.6   PhiVJoint=0.85   TanTheta=1
 
TABLE:  "PREFERENCES - CONCRETE SHELL DESIGN - EUROCODE 2-2004"
   Country="CEN Default"   GammaS=1.15   GammaC=1.5   AlphaCC=1   AlphaCT=1   CrackCond="Program Determined"   ShrDesMet="Method 1"   CotTheta=1   AddTenForce=Yes
 
TABLE:  "PREFERENCES - DIMENSIONAL"
   MergeTol=0.00833333333333333   FineGrid=1   Nudge=1   SelectTol=3   SnapTol=12   SLineThick=2   PLineThick=4   MaxFont=12   MinFont=6   AutoZoom=10   ShrinkFact=70   TextFileLen=240
 
TABLE:  "PREFERENCES - STEEL DESIGN - AISC 360-16"
   THDesign=Envelopes   FrameType=SMF   PatLLF=0.75   SRatioLimit=0.95   MaxIter=1   SDC=D   SeisCode=No   SeisLoad=No   ImpFactor=1   SystemRho=1   SystemSds=0.5   SystemR=8   SystemCd=5.5   Omega0=3   Provision=LRFD _
        AMethod="Direct Analysis"   SOMethod="General 2nd Order"   SRMethod="Tau-b Fixed"   NLCoeff=0.002   PhiB=0.9   PhiC=0.9   PhiTY=0.9   PhiTF=0.75   PhiV=0.9   PhiVRolledI=1   PhiVT=0.9   PlugWeld=Yes   HSSWelding=ERW   HSSReduceT=No _
        CheckDefl=No   DLRat=120   SDLAndLLRat=120   LLRat=360   TotalRat=240   NetRat=240
 
TABLE:  "PROGRAM CONTROL"
   ProgramName=SAP2000   Version=25.3.1   CurrUnits="Kip, ft, F"   SteelCode="AISC 360-16"   ConcCode="ACI 318-19"   AlumCode="AA 2015"   ColdCode=AISI-16   RegenHinge=Yes
 
TABLE:  "PROJECT INFORMATION"
   Item="Company Name"
   Item="Client Name"
   Item="Project Name"
   Item="Project Number"
   Item="Model Name"
   Item="Model Description"
   Item="Revision Number"
   Item="Frame Type"
   Item=Engineer
   Item=Checker
   Item=Supervisor
   Item="Issue Code"
   Item="Design Code"
 
TABLE:  "REBAR SIZES"
   RebarID=#2   Area=0.000347222222222222   Diameter=0.0208333333333333
   RebarID=#3   Area=0.000763888884749677   Diameter=0.03125
   RebarID=#4   Area=0.00138888890958495   Diameter=0.0416666666666667
   RebarID=#5   Area=0.00215277779433462   Diameter=0.0520833333333333
   RebarID=#6   Area=0.00305555553899871   Diameter=0.0625
   RebarID=#7   Area=0.00416666683223512   Diameter=0.0729166666666667
   RebarID=#8   Area=0.00548611126012272   Diameter=0.0833333333333333
   RebarID=#9   Area=0.00694444444444444   Diameter=0.0940000017484029
   RebarID=#10   Area=0.00881944431198968   Diameter=0.105833331743876
   RebarID=#11   Area=0.010833332935969   Diameter=0.11749999721845
   RebarID=#14   Area=0.015625   Diameter=0.141083329916
   RebarID=#18   Area=0.0277777777777778   Diameter=0.188083330790202
   RebarID=10M   Area=0.00107639107025332   Diameter=0.0370734930038452
   RebarID=15M   Area=0.00215278214050664   Diameter=0.0524934381246567
   RebarID=20M   Area=0.00322917331424024   Diameter=0.063976377248764
   RebarID=25M   Area=0.00538195545474688   Diameter=0.0826771706342697
   RebarID=30M   Area=0.00753473738829295   Diameter=0.0980971157550812
   RebarID=35M   Area=0.0107639109094938   Diameter=0.117125988006592
   RebarID=45M   Area=0.0161458667781618   Diameter=0.143372704585393
   RebarID=55M   Area=0.0269097768598133   Diameter=0.185039381186167
   RebarID=6d   Area=0.000304618669259879   Diameter=0.019685039917628
   RebarID=8d   Area=0.000541424689193567   Diameter=0.0262467190623283
   RebarID=10d   Area=0.000844966982387834   Diameter=0.0328083982070287
   RebarID=12d   Area=0.00121632197664844   Diameter=0.0393700798352559
   RebarID=14d   Area=0.00165764232062631   Diameter=0.0459317614634832
   RebarID=16d   Area=0.00216354615986347   Diameter=0.0524934381246567
   RebarID=20d   Area=0.00337986792955134   Diameter=0.0656167964140574
   RebarID=25d   Area=0.00528508010837767   Diameter=0.0820209980010986
   RebarID=26d   Area=0.00571563674343957   Diameter=0.0853018363316854
   RebarID=28d   Area=0.00663056928250525   Diameter=0.0918635229269663
   RebarID=N12   Area=0.00121632197664844   Diameter=0.0393700798352559
   RebarID=N16   Area=0.00216354615986347   Diameter=0.0524934381246567
   RebarID=N20   Area=0.00337986792955134   Diameter=0.0656167964140574
   RebarID=N24   Area=0.00486528790659375   Diameter=0.0787401596705119
   RebarID=N28   Area=0.00663056928250525   Diameter=0.0918635229269663
   RebarID=N32   Area=0.00865418463945389   Diameter=0.104986876249313
   RebarID=N36   Area=0.0109791888131036   Diameter=0.118110239505768
 
END TABLE DATA
