File D:\Users\JoinTheLegion\Downloads\SAP\StructGNN\MP TESTING\3DFrame.$2k was saved on m/d/yy at h:mm:ss
 
TABLE:  "ACTIVE DEGREES OF FREEDOM"
   UX=Yes   UY=Yes   UZ=Yes   RX=Yes   RY=Yes   RZ=Yes
 
TABLE:  "ANALYSIS OPTIONS"
   Solver=Advanced   SolverProc=Auto   Force32Bit=No   StiffCase=None   GeomMod=None   HingeOpt="In Elements"   NumAThreads=0   MaxFileSize=0   NumDThreads=0   NumRThreads=0   UseMMFiles="Program Determined"   AllowDiff=No
 
TABLE:  "AREA AUTO MESH ASSIGNMENTS"
   Area=1   MeshType="Number of Elements"   MeshGroup=ALL   Number1=4   Number2=4   LocalEdge=No   LocalFace=No   SuppEdge=No   SuppFace=No   SubMesh=No
   Area=2   MeshType="Number of Elements"   MeshGroup=ALL   Number1=4   Number2=4   LocalEdge=No   LocalFace=No   SuppEdge=No   SuppFace=No   SubMesh=No
   Area=3   MeshType="Number of Elements"   MeshGroup=ALL   Number1=4   Number2=4   LocalEdge=No   LocalFace=No   SuppEdge=No   SuppFace=No   SubMesh=No
   Area=4   MeshType="Number of Elements"   MeshGroup=ALL   Number1=4   Number2=4   LocalEdge=No   LocalFace=No   SuppEdge=No   SuppFace=No   SubMesh=No
   Area=5   MeshType="Number of Elements"   MeshGroup=ALL   Number1=4   Number2=4   LocalEdge=No   LocalFace=No   SuppEdge=No   SuppFace=No   SubMesh=No
   Area=6   MeshType="Number of Elements"   MeshGroup=ALL   Number1=4   Number2=4   LocalEdge=No   LocalFace=No   SuppEdge=No   SuppFace=No   SubMesh=No
   Area=7   MeshType="Number of Elements"   MeshGroup=ALL   Number1=4   Number2=4   LocalEdge=No   LocalFace=No   SuppEdge=No   SuppFace=No   SubMesh=No
   Area=8   MeshType="Number of Elements"   MeshGroup=ALL   Number1=4   Number2=4   LocalEdge=No   LocalFace=No   SuppEdge=No   SuppFace=No   SubMesh=No
   Area=9   MeshType="Number of Elements"   MeshGroup=ALL   Number1=4   Number2=4   LocalEdge=No   LocalFace=No   SuppEdge=No   SuppFace=No   SubMesh=No
   Area=10   MeshType="Number of Elements"   MeshGroup=ALL   Number1=4   Number2=4   LocalEdge=No   LocalFace=No   SuppEdge=No   SuppFace=No   SubMesh=No
   Area=11   MeshType="Number of Elements"   MeshGroup=ALL   Number1=4   Number2=4   LocalEdge=No   LocalFace=No   SuppEdge=No   SuppFace=No   SubMesh=No
   Area=12   MeshType="Number of Elements"   MeshGroup=ALL   Number1=4   Number2=4   LocalEdge=No   LocalFace=No   SuppEdge=No   SuppFace=No   SubMesh=No
   Area=13   MeshType="Number of Elements"   MeshGroup=ALL   Number1=4   Number2=4   LocalEdge=No   LocalFace=No   SuppEdge=No   SuppFace=No   SubMesh=No
   Area=14   MeshType="Number of Elements"   MeshGroup=ALL   Number1=4   Number2=4   LocalEdge=No   LocalFace=No   SuppEdge=No   SuppFace=No   SubMesh=No
   Area=15   MeshType="Number of Elements"   MeshGroup=ALL   Number1=4   Number2=4   LocalEdge=No   LocalFace=No   SuppEdge=No   SuppFace=No   SubMesh=No
   Area=16   MeshType="Number of Elements"   MeshGroup=ALL   Number1=4   Number2=4   LocalEdge=No   LocalFace=No   SuppEdge=No   SuppFace=No   SubMesh=No
   Area=17   MeshType="Number of Elements"   MeshGroup=ALL   Number1=4   Number2=4   LocalEdge=No   LocalFace=No   SuppEdge=No   SuppFace=No   SubMesh=No
   Area=18   MeshType="Number of Elements"   MeshGroup=ALL   Number1=4   Number2=4   LocalEdge=No   LocalFace=No   SuppEdge=No   SuppFace=No   SubMesh=No
   Area=19   MeshType="Number of Elements"   MeshGroup=ALL   Number1=4   Number2=4   LocalEdge=No   LocalFace=No   SuppEdge=No   SuppFace=No   SubMesh=No
   Area=20   MeshType="Number of Elements"   MeshGroup=ALL   Number1=4   Number2=4   LocalEdge=No   LocalFace=No   SuppEdge=No   SuppFace=No   SubMesh=No
# ... 12 like lines cut
 
TABLE:  "AREA SECTION ASSIGNMENTS"
   Area=1   Section=ASEC1   MatProp=Default
   Area=2   Section=ASEC1   MatProp=Default
   Area=3   Section=ASEC1   MatProp=Default
   Area=4   Section=ASEC1   MatProp=Default
   Area=5   Section=ASEC1   MatProp=Default
   Area=6   Section=ASEC1   MatProp=Default
   Area=7   Section=ASEC1   MatProp=Default
   Area=8   Section=ASEC1   MatProp=Default
   Area=9   Section=ASEC1   MatProp=Default
   Area=10   Section=ASEC1   MatProp=Default
   Area=11   Section=ASEC1   MatProp=Default
   Area=12   Section=ASEC1   MatProp=Default
   Area=13   Section=ASEC1   MatProp=Default
   Area=14   Section=ASEC1   MatProp=Default
   Area=15   Section=ASEC1   MatProp=Default
   Area=16   Section=ASEC1   MatProp=Default
   Area=17   Section=ASEC1   MatProp=Default
   Area=18   Section=ASEC1   MatProp=Default
   Area=19   Section=ASEC1   MatProp=Default
   Area=20   Section=ASEC1   MatProp=Default
# ... 12 like lines cut
 
TABLE:  "AREA SECTION PROPERTIES"
   Section=ASEC1   Material=4000Psi   MatAngle=0   AreaType=Shell   Type=Shell-Thin   DrillDOF=Yes   Thickness=1   BendThick=1   Color=Cyan   F11Mod=1   F22Mod=1   F12Mod=1   M11Mod=1   M22Mod=1   M12Mod=1   V13Mod=1   V23Mod=1   MMod=1 _
        WMod=1   GUID=a888047b-cca4-4b93-8862-c89ffbbdb6cd   Notes="Added 8/17/2025 7:54:44 PM"
 
TABLE:  "AREA SECTION PROPERTY DESIGN PARAMETERS"
   Section=ASEC1   RebarMat=None   RebarOpt=Default
 
TABLE:  "AREA SECTION PROPERTY - TIME DEPENDENT"
   Section=ASEC1   TypeSize=Auto   AutoSFSize=1
 
TABLE:  "AUTO WAVE 3 - WAVE CHARACTERISTICS - GENERAL"
   WaveChar=Default   WaveType="From Theory"   KinFactor=1   SWaterDepth=150   WaveHeight=60   WavePeriod=12   WaveTheory=Linear
 
TABLE:  "CASE - MODAL 1 - GENERAL"
   Case=MODAL   ModeType=Eigen   MaxNumModes=12   MinNumModes=1   EigenShift=0   EigenCutoff=0   EigenTol=1E-09   AutoShift=Yes
 
TABLE:  "CASE - STATIC 1 - LOAD ASSIGNMENTS"
   Case=DEAD   LoadType="Load pattern"   LoadName=DEAD   LoadSF=1
   Case=TOP_LOAD   LoadType="Load pattern"   LoadName=TOP_LOAD   LoadSF=1
 
TABLE:  "CONNECTIVITY - AREA"
   Area=1   Joint1=2   Joint2=17   Joint3=20   Joint4=5   GUID=04c2355d-1d35-47f8-b811-28d3b9081290
   Area=2   Joint1=5   Joint2=20   Joint3=23   Joint4=8   GUID=d68460f8-f4e9-440e-b18e-0f9afc7a68c5
   Area=3   Joint1=8   Joint2=23   Joint3=26   Joint4=11   GUID=b69f4649-ce51-4086-b56d-bc9639df0090
   Area=4   Joint1=11   Joint2=26   Joint3=29   Joint4=14   GUID=69315e41-669a-43fd-a8f4-685e9235e8d4
   Area=5   Joint1=17   Joint2=32   Joint3=35   Joint4=20   GUID=2e3075df-7ebc-4586-a5fa-9c912325bdb4
   Area=6   Joint1=20   Joint2=35   Joint3=38   Joint4=23   GUID=d2351d37-3bc9-4477-b3f4-8f41be7c372c
   Area=7   Joint1=23   Joint2=38   Joint3=41   Joint4=26   GUID=404fc6cf-fb81-493d-a122-ea27c6392224
   Area=8   Joint1=26   Joint2=41   Joint3=44   Joint4=29   GUID=212d793a-57f0-4392-af82-8a7c1cd34512
   Area=9   Joint1=32   Joint2=47   Joint3=50   Joint4=35   GUID=ed636166-f628-4a5f-b817-313d3eb10673
   Area=10   Joint1=35   Joint2=50   Joint3=53   Joint4=38   GUID=99c72eb8-156a-4eeb-a8e0-89e73eb14fb2
   Area=11   Joint1=38   Joint2=53   Joint3=56   Joint4=41   GUID=72dd160f-03db-4ba7-a4e6-0641021c86ba
   Area=12   Joint1=41   Joint2=56   Joint3=59   Joint4=44   GUID=0180f7f6-0848-4be0-9bcf-8cb5bf438f59
   Area=13   Joint1=47   Joint2=62   Joint3=65   Joint4=50   GUID=8e9bbca0-44cc-444f-b8d4-b7c3c4eb4ac4
   Area=14   Joint1=50   Joint2=65   Joint3=68   Joint4=53   GUID=94ac5145-527f-4633-b8e2-d8ee4ca94cc1
   Area=15   Joint1=53   Joint2=68   Joint3=71   Joint4=56   GUID=d3a8f379-cb4b-4c2d-9d6b-da107a63c3d0
   Area=16   Joint1=56   Joint2=71   Joint3=74   Joint4=59   GUID=c8810569-1894-4d82-9937-e0094b2c71af
   Area=17   Joint1=3   Joint2=18   Joint3=21   Joint4=6   GUID=66cd3310-8ac1-4704-b4b3-66445c8e4089
   Area=18   Joint1=6   Joint2=21   Joint3=24   Joint4=9   GUID=fb380fcd-81dd-4420-8e73-a10b169abc4a
   Area=19   Joint1=9   Joint2=24   Joint3=27   Joint4=12   GUID=8762a898-6f2a-418d-baaf-4b15c18c381d
   Area=20   Joint1=12   Joint2=27   Joint3=30   Joint4=15   GUID=eaf4458b-1194-4637-93bd-9fea15b3182f
   Area=21   Joint1=18   Joint2=33   Joint3=36   Joint4=21   GUID=a6f5a6db-ab37-4404-abc3-13f73d0f3d04
   Area=22   Joint1=21   Joint2=36   Joint3=39   Joint4=24   GUID=5f3b1af1-79a7-4d87-a297-e232becfdbb9
   Area=23   Joint1=24   Joint2=39   Joint3=42   Joint4=27   GUID=592d1748-a929-4ed8-a3a0-c6903da74041
   Area=24   Joint1=27   Joint2=42   Joint3=45   Joint4=30   GUID=c7040bb6-5a67-4b79-b5ad-25722a8fabca
   Area=25   Joint1=33   Joint2=48   Joint3=51   Joint4=36   GUID=c91318e4-2aa1-4beb-ba97-3b44082624ba
   Area=26   Joint1=36   Joint2=51   Joint3=54   Joint4=39   GUID=f691e929-8570-4fee-b2ae-1056aad467b4
   Area=27   Joint1=39   Joint2=54   Joint3=57   Joint4=42   GUID=edfd668e-7959-4120-9b70-21b37ad4e8af
   Area=28   Joint1=42   Joint2=57   Joint3=60   Joint4=45   GUID=6cbc6f4d-51d9-4532-9962-b0daf26f4238
   Area=29   Joint1=48   Joint2=63   Joint3=66   Joint4=51   GUID=330e3f62-9380-4c9e-a622-dabff16a20eb
   Area=30   Joint1=51   Joint2=66   Joint3=69   Joint4=54   GUID=575f9ff0-d517-4581-a3cb-66187e95865c
   Area=31   Joint1=54   Joint2=69   Joint3=72   Joint4=57   GUID=f4d5f9f9-32f1-401d-82c5-0c0a870446fb
   Area=32   Joint1=57   Joint2=72   Joint3=75   Joint4=60   GUID=9fe681f7-a492-4cd0-ad24-43260c96f3cf
 
TABLE:  "CONNECTIVITY - FRAME"
   Frame=1   JointI=1   JointJ=2   IsCurved=No   GUID=8c213184-b7e3-4ae4-93d3-15d93e99fef5
   Frame=2   JointI=2   JointJ=3   IsCurved=No   GUID=2656da11-ce55-4cb4-b86e-da4eadb25db0
   Frame=3   JointI=4   JointJ=5   IsCurved=No   GUID=09bb1fca-c03f-4c04-96bb-11acd874edde
   Frame=4   JointI=5   JointJ=6   IsCurved=No   GUID=718df696-ec78-4dde-8f21-a1f90637e1e0
   Frame=5   JointI=7   JointJ=8   IsCurved=No   GUID=1fed277e-2e3d-41fa-9d90-efaf4306eefd
   Frame=6   JointI=8   JointJ=9   IsCurved=No   GUID=b080a13c-c82d-4d47-b27d-012616c2d9c2
   Frame=7   JointI=10   JointJ=11   IsCurved=No   GUID=89dc9764-f95a-4420-9809-3adea60c967b
   Frame=8   JointI=11   JointJ=12   IsCurved=No   GUID=8218f860-f2de-44df-b74b-8c0eb5d26c47
   Frame=9   JointI=13   JointJ=14   IsCurved=No   GUID=24019362-372f-4dcf-b77e-061f79e935c3
   Frame=10   JointI=14   JointJ=15   IsCurved=No   GUID=6789fad4-4274-4200-a4e0-fa4f658fea44
   Frame=11   JointI=16   JointJ=17   IsCurved=No   GUID=60d898c8-1769-442b-903e-56fc27afc023
   Frame=12   JointI=17   JointJ=18   IsCurved=No   GUID=1897789a-6be8-4184-ab78-d050a0d10833
   Frame=13   JointI=19   JointJ=20   IsCurved=No   GUID=7b22b2ce-7286-40e4-aa8e-f05b919d5cca
   Frame=14   JointI=20   JointJ=21   IsCurved=No   GUID=288eb1c1-fdc9-4fb5-9db7-2f1929464110
   Frame=15   JointI=22   JointJ=23   IsCurved=No   GUID=5caa5d60-fc16-461e-b9e0-3e40fdabcf69
   Frame=16   JointI=23   JointJ=24   IsCurved=No   GUID=1775c963-a679-42b3-a3f6-200a36a3fa6d
   Frame=17   JointI=25   JointJ=26   IsCurved=No   GUID=ff0eb9b6-c939-478f-aed7-aed56dbdaa44
   Frame=18   JointI=26   JointJ=27   IsCurved=No   GUID=bcbeda06-f8f8-4b84-a96a-a56bb6fba7d9
   Frame=19   JointI=28   JointJ=29   IsCurved=No   GUID=2ffe6454-099e-4f02-aaf4-26233c417d91
   Frame=20   JointI=29   JointJ=30   IsCurved=No   GUID=0847966c-6acb-488b-bd03-27142c315cc7
   Frame=21   JointI=31   JointJ=32   IsCurved=No   GUID=ca5f3e79-a9b9-462d-9051-7fbbc6324b04
   Frame=22   JointI=32   JointJ=33   IsCurved=No   GUID=51ff9f2d-53e3-4992-93dd-b323f4a5a2c7
   Frame=23   JointI=34   JointJ=35   IsCurved=No   GUID=22cd0897-b2dc-4fab-a536-63a2b7b95b7b
   Frame=24   JointI=35   JointJ=36   IsCurved=No   GUID=11eef613-06e8-4eae-9b39-a9f57cb85ab7
   Frame=25   JointI=37   JointJ=38   IsCurved=No   GUID=314b553d-e2f3-480d-8d92-93bee51d5814
   Frame=26   JointI=38   JointJ=39   IsCurved=No   GUID=8f4b93b9-8ad8-4e36-9221-9158f92286a7
   Frame=27   JointI=40   JointJ=41   IsCurved=No   GUID=4379e6fd-b2ef-4474-ae52-fb83e520ff2d
   Frame=28   JointI=41   JointJ=42   IsCurved=No   GUID=779be0ba-270d-41d1-9258-7ac2700003b2
   Frame=29   JointI=43   JointJ=44   IsCurved=No   GUID=d40aad98-2ba1-4920-ae9a-14bd63ba2aaa
   Frame=30   JointI=44   JointJ=45   IsCurved=No   GUID=73ac7a9c-da4a-4414-a437-e32cdaff89f1
   Frame=31   JointI=46   JointJ=47   IsCurved=No   GUID=b0cd9ce0-ef87-4ae7-ae1b-c2dae8a332da
   Frame=32   JointI=47   JointJ=48   IsCurved=No   GUID=3755a4c1-ec4d-445c-a609-c641fb194d40
   Frame=33   JointI=49   JointJ=50   IsCurved=No   GUID=5397a396-2fc9-40b0-b5c7-d4091c9855c8
   Frame=34   JointI=50   JointJ=51   IsCurved=No   GUID=c590ba64-acbe-4b06-a9a0-34d033776d01
   Frame=35   JointI=52   JointJ=53   IsCurved=No   GUID=f397b595-da85-4f99-9633-2e2e6ae769b2
   Frame=36   JointI=53   JointJ=54   IsCurved=No   GUID=b13abfc9-bc57-4407-90bb-17576f7bdd50
   Frame=37   JointI=55   JointJ=56   IsCurved=No   GUID=7be85d7e-b3c6-4ffc-8cae-6817517b9789
   Frame=38   JointI=56   JointJ=57   IsCurved=No   GUID=612e7df7-9e48-4ba9-ab82-c88f6705e465
   Frame=39   JointI=58   JointJ=59   IsCurved=No   GUID=9323087c-42be-44be-84ca-e852fdedbb99
   Frame=40   JointI=59   JointJ=60   IsCurved=No   GUID=9dad4990-66bc-4f4a-9fdd-0e6904c7c665
   Frame=41   JointI=61   JointJ=62   IsCurved=No   GUID=c0bb176b-0761-44f7-a0ca-cc7288329593
   Frame=42   JointI=62   JointJ=63   IsCurved=No   GUID=87c76b53-9f53-4fbd-972b-8281b33c8cad
   Frame=43   JointI=64   JointJ=65   IsCurved=No   GUID=6976ce29-a8b8-4d1f-85da-7e9c9a4d7741
   Frame=44   JointI=65   JointJ=66   IsCurved=No   GUID=5b67d511-973d-4058-820e-7b52dbb7362e
   Frame=45   JointI=67   JointJ=68   IsCurved=No   GUID=654fcd26-5a7a-44bb-87b1-b42da2bdee7a
   Frame=46   JointI=68   JointJ=69   IsCurved=No   GUID=89fd8098-ca7b-4bae-86cf-5f852adb5a12
   Frame=47   JointI=70   JointJ=71   IsCurved=No   GUID=0028b812-f533-46f7-8942-851f1fb2071f
   Frame=48   JointI=71   JointJ=72   IsCurved=No   GUID=dd97c4c8-cc23-4b76-928c-4aa70f40deee
   Frame=49   JointI=73   JointJ=74   IsCurved=No   GUID=2ee6930d-4dd6-4d0b-a039-d8b94b5c7090
   Frame=50   JointI=74   JointJ=75   IsCurved=No   GUID=a5b0fb1f-e7ee-48f6-926c-9542d1efa40a
   Frame=51   JointI=2   JointJ=17   IsCurved=No   GUID=cde30665-ca3a-4f2e-815d-74f703c9ac10
   Frame=52   JointI=3   JointJ=18   IsCurved=No   GUID=d6a9d28f-7b5e-4bd3-914d-2138a5ffeea6
   Frame=53   JointI=17   JointJ=32   IsCurved=No   GUID=0f37f9ea-7689-4343-baeb-01048d2f1320
   Frame=54   JointI=18   JointJ=33   IsCurved=No   GUID=8fbe60d7-3368-42c7-b4d5-37e18f3a7897
   Frame=55   JointI=32   JointJ=47   IsCurved=No   GUID=3cbbbd21-b52e-4c38-9820-ae6b305b9bd7
   Frame=56   JointI=33   JointJ=48   IsCurved=No   GUID=010b4f37-4f03-4ace-8260-36f9f628384d
   Frame=57   JointI=47   JointJ=62   IsCurved=No   GUID=410b6002-48f1-4c79-b895-ac7a1468d622
   Frame=58   JointI=48   JointJ=63   IsCurved=No   GUID=6e160fb4-54a1-4955-9995-02da24da9364
   Frame=59   JointI=5   JointJ=20   IsCurved=No   GUID=483906f1-1dc8-4de2-9827-0ddac2ef109a
   Frame=60   JointI=6   JointJ=21   IsCurved=No   GUID=ff044981-1d92-4b38-9013-130c03456feb
   Frame=61   JointI=20   JointJ=35   IsCurved=No   GUID=edd69dbd-0cd9-4447-8ce2-00c356cd2f2e
   Frame=62   JointI=21   JointJ=36   IsCurved=No   GUID=bff849e3-94f6-48f7-b656-91d05712a6e0
   Frame=63   JointI=35   JointJ=50   IsCurved=No   GUID=407fec24-c311-41c6-bb93-5102c2de4ec2
   Frame=64   JointI=36   JointJ=51   IsCurved=No   GUID=b72c148f-8dd6-4926-9944-ee4b451fe34b
   Frame=65   JointI=50   JointJ=65   IsCurved=No   GUID=cb2d9afa-b4ed-4e2b-a269-997088ae7ee9
   Frame=66   JointI=51   JointJ=66   IsCurved=No   GUID=a041d36c-c23a-40e2-817e-40b25c3483f7
   Frame=67   JointI=8   JointJ=23   IsCurved=No   GUID=3ccb7813-0e05-43bb-8263-ba3a2d555ce2
   Frame=68   JointI=9   JointJ=24   IsCurved=No   GUID=1708ce6c-ff46-41a5-929e-cb052403d85f
   Frame=69   JointI=23   JointJ=38   IsCurved=No   GUID=9a354165-f58e-4b0b-9102-5fff1cd11bdf
   Frame=70   JointI=24   JointJ=39   IsCurved=No   GUID=6ff2c0ee-b3e2-4bc0-becc-56d81f16cc1e
   Frame=71   JointI=38   JointJ=53   IsCurved=No   GUID=f872f2ef-7470-454b-b10d-a237477b1eb3
   Frame=72   JointI=39   JointJ=54   IsCurved=No   GUID=6ad04ec5-fa7f-4fe5-bf72-e1775cd2827b
   Frame=73   JointI=53   JointJ=68   IsCurved=No   GUID=aff01d86-29a6-4682-b00f-a166aa6f26f4
   Frame=74   JointI=54   JointJ=69   IsCurved=No   GUID=bfc8c86f-525c-4fbe-8ade-99379c4fcd73
   Frame=75   JointI=11   JointJ=26   IsCurved=No   GUID=4715077b-c3d7-4e30-9b69-406df5a5613e
   Frame=76   JointI=12   JointJ=27   IsCurved=No   GUID=2c4c75b1-5027-4fa9-b4e2-a29c08070160
   Frame=77   JointI=26   JointJ=41   IsCurved=No   GUID=57b43da1-15d7-4ad6-8760-5dbaee62a08b
   Frame=78   JointI=27   JointJ=42   IsCurved=No   GUID=095ef569-7536-46ab-b82b-cea42bcc6f3c
   Frame=79   JointI=41   JointJ=56   IsCurved=No   GUID=4f37b03c-afc8-4c7c-a821-ce6f0725c155
   Frame=80   JointI=42   JointJ=57   IsCurved=No   GUID=be4fc358-9eae-41de-95b8-a9f064a36f07
   Frame=81   JointI=56   JointJ=71   IsCurved=No   GUID=6dbe7982-88e8-44c7-a836-e73d309700ec
   Frame=82   JointI=57   JointJ=72   IsCurved=No   GUID=3bb90915-b10c-4117-8042-2736a0f9ddb0
   Frame=83   JointI=14   JointJ=29   IsCurved=No   GUID=1037415d-062f-4f38-9a5c-733e4ef869f1
   Frame=84   JointI=15   JointJ=30   IsCurved=No   GUID=de86cf03-29a6-4387-80ab-d232e70180c3
   Frame=85   JointI=29   JointJ=44   IsCurved=No   GUID=fb0b619d-01bf-457e-9f23-83d43d0d30e5
   Frame=86   JointI=30   JointJ=45   IsCurved=No   GUID=5adbb353-8dc3-4202-888c-550c60eceba4
   Frame=87   JointI=44   JointJ=59   IsCurved=No   GUID=ca3cb457-1d12-4065-80bd-3560393c059a
   Frame=88   JointI=45   JointJ=60   IsCurved=No   GUID=9fc11fbf-37e1-4c88-ba8c-78d4eb46fd43
   Frame=89   JointI=59   JointJ=74   IsCurved=No   GUID=626f91fa-f2e4-49e8-8fdc-25fa08a719f8
   Frame=90   JointI=60   JointJ=75   IsCurved=No   GUID=d92752c8-93f5-4a3c-8b65-5ca1f8c158db
   Frame=91   JointI=2   JointJ=5   IsCurved=No   GUID=c882b370-6dc7-45d6-9219-ee877a5551b5
   Frame=92   JointI=3   JointJ=6   IsCurved=No   GUID=85296c52-c99d-436e-9ff5-87746ed7bfe0
   Frame=93   JointI=5   JointJ=8   IsCurved=No   GUID=2a70aef6-22a8-4415-b54b-c3179b8c3d77
   Frame=94   JointI=6   JointJ=9   IsCurved=No   GUID=8fc548f5-bac1-418f-a0d4-7a670cdc3170
   Frame=95   JointI=8   JointJ=11   IsCurved=No   GUID=fdad0569-4805-4ba2-b085-367fe6395ce1
   Frame=96   JointI=9   JointJ=12   IsCurved=No   GUID=042974b9-1ba2-45de-9d5d-1b858edcffac
   Frame=97   JointI=11   JointJ=14   IsCurved=No   GUID=3530df81-2eff-4f0d-bb1c-2834d7d45bb5
   Frame=98   JointI=12   JointJ=15   IsCurved=No   GUID=e91144c1-c218-457e-8e5c-24235ea05a99
   Frame=99   JointI=17   JointJ=20   IsCurved=No   GUID=8c26a1a3-608f-48e4-ba11-eb5002ecebd4
   Frame=100   JointI=18   JointJ=21   IsCurved=No   GUID=c2e9b5bf-4291-47c9-b4c1-db6e44ea1b13
   Frame=101   JointI=20   JointJ=23   IsCurved=No   GUID=e38f1699-ba22-44c4-a8a0-a4e78f48ac09
   Frame=102   JointI=21   JointJ=24   IsCurved=No   GUID=d14eb14d-549a-4e1a-9ff3-4791f8867266
   Frame=103   JointI=23   JointJ=26   IsCurved=No   GUID=0c391f8e-7dd3-4a6f-a383-f13af95e0ba6
   Frame=104   JointI=24   JointJ=27   IsCurved=No   GUID=5c3d82f8-b087-4384-85f5-57f4b501dc80
   Frame=105   JointI=26   JointJ=29   IsCurved=No   GUID=dca8e917-65cb-4b62-a2f0-d5f7ba08e1b2
   Frame=106   JointI=27   JointJ=30   IsCurved=No   GUID=f19ea7ea-8dc7-4efd-9d13-b09d15d76ead
   Frame=107   JointI=32   JointJ=35   IsCurved=No   GUID=047a590e-894b-463a-a369-b3615089bfad
   Frame=108   JointI=33   JointJ=36   IsCurved=No   GUID=38aaacd3-1ba3-45de-9eb0-ce0b2fbd601a
   Frame=109   JointI=35   JointJ=38   IsCurved=No   GUID=99083254-a2af-43bd-83c6-189d72105606
   Frame=110   JointI=36   JointJ=39   IsCurved=No   GUID=9912d426-05d1-4b6d-86b7-236d69a506c2
   Frame=111   JointI=38   JointJ=41   IsCurved=No   GUID=b42f3ceb-77af-4b75-882d-8743cbcf7a24
   Frame=112   JointI=39   JointJ=42   IsCurved=No   GUID=356b25f0-cbfa-4b71-a0b2-3448f6d2819f
   Frame=113   JointI=41   JointJ=44   IsCurved=No   GUID=7376ccc8-ef3d-441b-a909-0940fbcbb1a6
   Frame=114   JointI=42   JointJ=45   IsCurved=No   GUID=d4235b18-1579-41ea-8fbf-eb765d748044
   Frame=115   JointI=47   JointJ=50   IsCurved=No   GUID=5b7a540c-c662-4ff9-b549-fc0ac9490d1e
   Frame=116   JointI=48   JointJ=51   IsCurved=No   GUID=dfa35b13-9d08-4c51-8a06-2d362401ed39
   Frame=117   JointI=50   JointJ=53   IsCurved=No   GUID=17b88ac5-ff62-4049-8461-b524ca0c6cc4
   Frame=118   JointI=51   JointJ=54   IsCurved=No   GUID=7ab33705-9c67-4b5b-af62-9b86e4ac6142
   Frame=119   JointI=53   JointJ=56   IsCurved=No   GUID=84167241-0e16-4091-bfdc-c64ec6731b6e
   Frame=120   JointI=54   JointJ=57   IsCurved=No   GUID=e9a2c829-06d6-49df-8c70-0cfbec555789
   Frame=121   JointI=56   JointJ=59   IsCurved=No   GUID=1055c45a-e103-435b-b3a6-ae437d644f73
   Frame=122   JointI=57   JointJ=60   IsCurved=No   GUID=09c8ca69-30d3-42e9-9d89-85f0267cc28b
   Frame=123   JointI=62   JointJ=65   IsCurved=No   GUID=8e88ab19-c67c-4182-ab0e-fd74e3508490
   Frame=124   JointI=63   JointJ=66   IsCurved=No   GUID=28d2ec82-1828-45a9-8511-2ff779f5e180
   Frame=125   JointI=65   JointJ=68   IsCurved=No   GUID=bac1c30d-67b3-46bc-92f8-c763a954713b
   Frame=126   JointI=66   JointJ=69   IsCurved=No   GUID=227a5c6b-b2e8-42e5-8c99-8eb27ccafdb9
   Frame=127   JointI=68   JointJ=71   IsCurved=No   GUID=6c158414-bd16-4dad-9926-53d0c5670049
   Frame=128   JointI=69   JointJ=72   IsCurved=No   GUID=1649d835-27df-4a00-a2f1-7e6b10aea7fd
   Frame=129   JointI=71   JointJ=74   IsCurved=No   GUID=b9bd7571-d5b3-40d4-8f37-e076f83e40b8
   Frame=130   JointI=72   JointJ=75   IsCurved=No   GUID=6a5213ac-1006-4cb4-954c-8cc37b3067bb
 
TABLE:  "COORDINATE SYSTEMS"
   Name=GLOBAL   Type=Cartesian   X=0   Y=0   Z=0   AboutZ=0   AboutY=0   AboutX=0
 
TABLE:  "DATABASE DOCUMENTATION"
 
TABLE:  "DATABASE FORMAT TYPES"
   UnitsCurr=Yes   OverrideE=No
 
TABLE:  "FRAME AUTO MESH ASSIGNMENTS"
   Frame=1   AutoMesh=Yes   AtJoints=Yes   AtFrames=No   NumSegments=0   MaxLength=0   MaxDegrees=0
   Frame=2   AutoMesh=Yes   AtJoints=Yes   AtFrames=No   NumSegments=0   MaxLength=0   MaxDegrees=0
   Frame=3   AutoMesh=Yes   AtJoints=Yes   AtFrames=No   NumSegments=0   MaxLength=0   MaxDegrees=0
   Frame=4   AutoMesh=Yes   AtJoints=Yes   AtFrames=No   NumSegments=0   MaxLength=0   MaxDegrees=0
   Frame=5   AutoMesh=Yes   AtJoints=Yes   AtFrames=No   NumSegments=0   MaxLength=0   MaxDegrees=0
   Frame=6   AutoMesh=Yes   AtJoints=Yes   AtFrames=No   NumSegments=0   MaxLength=0   MaxDegrees=0
   Frame=7   AutoMesh=Yes   AtJoints=Yes   AtFrames=No   NumSegments=0   MaxLength=0   MaxDegrees=0
   Frame=8   AutoMesh=Yes   AtJoints=Yes   AtFrames=No   NumSegments=0   MaxLength=0   MaxDegrees=0
   Frame=9   AutoMesh=Yes   AtJoints=Yes   AtFrames=No   NumSegments=0   MaxLength=0   MaxDegrees=0
   Frame=10   AutoMesh=Yes   AtJoints=Yes   AtFrames=No   NumSegments=0   MaxLength=0   MaxDegrees=0
   Frame=11   AutoMesh=Yes   AtJoints=Yes   AtFrames=No   NumSegments=0   MaxLength=0   MaxDegrees=0
   Frame=12   AutoMesh=Yes   AtJoints=Yes   AtFrames=No   NumSegments=0   MaxLength=0   MaxDegrees=0
   Frame=13   AutoMesh=Yes   AtJoints=Yes   AtFrames=No   NumSegments=0   MaxLength=0   MaxDegrees=0
   Frame=14   AutoMesh=Yes   AtJoints=Yes   AtFrames=No   NumSegments=0   MaxLength=0   MaxDegrees=0
   Frame=15   AutoMesh=Yes   AtJoints=Yes   AtFrames=No   NumSegments=0   MaxLength=0   MaxDegrees=0
   Frame=16   AutoMesh=Yes   AtJoints=Yes   AtFrames=No   NumSegments=0   MaxLength=0   MaxDegrees=0
   Frame=17   AutoMesh=Yes   AtJoints=Yes   AtFrames=No   NumSegments=0   MaxLength=0   MaxDegrees=0
   Frame=18   AutoMesh=Yes   AtJoints=Yes   AtFrames=No   NumSegments=0   MaxLength=0   MaxDegrees=0
   Frame=19   AutoMesh=Yes   AtJoints=Yes   AtFrames=No   NumSegments=0   MaxLength=0   MaxDegrees=0
   Frame=20   AutoMesh=Yes   AtJoints=Yes   AtFrames=No   NumSegments=0   MaxLength=0   MaxDegrees=0
# ... 110 like lines cut
 
TABLE:  "FRAME DESIGN PROCEDURES"
   Frame=1   DesignProc="From Material"
   Frame=2   DesignProc="From Material"
   Frame=3   DesignProc="From Material"
   Frame=4   DesignProc="From Material"
   Frame=5   DesignProc="From Material"
   Frame=6   DesignProc="From Material"
   Frame=7   DesignProc="From Material"
   Frame=8   DesignProc="From Material"
   Frame=9   DesignProc="From Material"
   Frame=10   DesignProc="From Material"
   Frame=11   DesignProc="From Material"
   Frame=12   DesignProc="From Material"
   Frame=13   DesignProc="From Material"
   Frame=14   DesignProc="From Material"
   Frame=15   DesignProc="From Material"
   Frame=16   DesignProc="From Material"
   Frame=17   DesignProc="From Material"
   Frame=18   DesignProc="From Material"
   Frame=19   DesignProc="From Material"
   Frame=20   DesignProc="From Material"
# ... 110 like lines cut
 
TABLE:  "FRAME LOAD TRANSFER OPTIONS"
   Frame=1   Transfer=Yes
   Frame=2   Transfer=Yes
   Frame=3   Transfer=Yes
   Frame=4   Transfer=Yes
   Frame=5   Transfer=Yes
   Frame=6   Transfer=Yes
   Frame=7   Transfer=Yes
   Frame=8   Transfer=Yes
   Frame=9   Transfer=Yes
   Frame=10   Transfer=Yes
   Frame=11   Transfer=Yes
   Frame=12   Transfer=Yes
   Frame=13   Transfer=Yes
   Frame=14   Transfer=Yes
   Frame=15   Transfer=Yes
   Frame=16   Transfer=Yes
   Frame=17   Transfer=Yes
   Frame=18   Transfer=Yes
   Frame=19   Transfer=Yes
   Frame=20   Transfer=Yes
# ... 110 like lines cut
 
TABLE:  "FRAME OUTPUT STATION ASSIGNMENTS"
   Frame=1   StationType=MinNumSta   MinNumSta=3   AddAtElmInt=Yes   AddAtPtLoad=Yes
   Frame=2   StationType=MinNumSta   MinNumSta=3   AddAtElmInt=Yes   AddAtPtLoad=Yes
   Frame=3   StationType=MinNumSta   MinNumSta=3   AddAtElmInt=Yes   AddAtPtLoad=Yes
   Frame=4   StationType=MinNumSta   MinNumSta=3   AddAtElmInt=Yes   AddAtPtLoad=Yes
   Frame=5   StationType=MinNumSta   MinNumSta=3   AddAtElmInt=Yes   AddAtPtLoad=Yes
   Frame=6   StationType=MinNumSta   MinNumSta=3   AddAtElmInt=Yes   AddAtPtLoad=Yes
   Frame=7   StationType=MinNumSta   MinNumSta=3   AddAtElmInt=Yes   AddAtPtLoad=Yes
   Frame=8   StationType=MinNumSta   MinNumSta=3   AddAtElmInt=Yes   AddAtPtLoad=Yes
   Frame=9   StationType=MinNumSta   MinNumSta=3   AddAtElmInt=Yes   AddAtPtLoad=Yes
   Frame=10   StationType=MinNumSta   MinNumSta=3   AddAtElmInt=Yes   AddAtPtLoad=Yes
   Frame=11   StationType=MinNumSta   MinNumSta=3   AddAtElmInt=Yes   AddAtPtLoad=Yes
   Frame=12   StationType=MinNumSta   MinNumSta=3   AddAtElmInt=Yes   AddAtPtLoad=Yes
   Frame=13   StationType=MinNumSta   MinNumSta=3   AddAtElmInt=Yes   AddAtPtLoad=Yes
   Frame=14   StationType=MinNumSta   MinNumSta=3   AddAtElmInt=Yes   AddAtPtLoad=Yes
   Frame=15   StationType=MinNumSta   MinNumSta=3   AddAtElmInt=Yes   AddAtPtLoad=Yes
   Frame=16   StationType=MinNumSta   MinNumSta=3   AddAtElmInt=Yes   AddAtPtLoad=Yes
   Frame=17   StationType=MinNumSta   MinNumSta=3   AddAtElmInt=Yes   AddAtPtLoad=Yes
   Frame=18   StationType=MinNumSta   MinNumSta=3   AddAtElmInt=Yes   AddAtPtLoad=Yes
   Frame=19   StationType=MinNumSta   MinNumSta=3   AddAtElmInt=Yes   AddAtPtLoad=Yes
   Frame=20   StationType=MinNumSta   MinNumSta=3   AddAtElmInt=Yes   AddAtPtLoad=Yes
# ... 30 like lines cut
   Frame=51   StationType=MaxStaSpcg   MaxStaSpcg=2   AddAtElmInt=Yes   AddAtPtLoad=Yes
   Frame=52   StationType=MaxStaSpcg   MaxStaSpcg=2   AddAtElmInt=Yes   AddAtPtLoad=Yes
   Frame=53   StationType=MaxStaSpcg   MaxStaSpcg=2   AddAtElmInt=Yes   AddAtPtLoad=Yes
   Frame=54   StationType=MaxStaSpcg   MaxStaSpcg=2   AddAtElmInt=Yes   AddAtPtLoad=Yes
   Frame=55   StationType=MaxStaSpcg   MaxStaSpcg=2   AddAtElmInt=Yes   AddAtPtLoad=Yes
   Frame=56   StationType=MaxStaSpcg   MaxStaSpcg=2   AddAtElmInt=Yes   AddAtPtLoad=Yes
   Frame=57   StationType=MaxStaSpcg   MaxStaSpcg=2   AddAtElmInt=Yes   AddAtPtLoad=Yes
   Frame=58   StationType=MaxStaSpcg   MaxStaSpcg=2   AddAtElmInt=Yes   AddAtPtLoad=Yes
   Frame=59   StationType=MaxStaSpcg   MaxStaSpcg=2   AddAtElmInt=Yes   AddAtPtLoad=Yes
   Frame=60   StationType=MaxStaSpcg   MaxStaSpcg=2   AddAtElmInt=Yes   AddAtPtLoad=Yes
   Frame=61   StationType=MaxStaSpcg   MaxStaSpcg=2   AddAtElmInt=Yes   AddAtPtLoad=Yes
   Frame=62   StationType=MaxStaSpcg   MaxStaSpcg=2   AddAtElmInt=Yes   AddAtPtLoad=Yes
   Frame=63   StationType=MaxStaSpcg   MaxStaSpcg=2   AddAtElmInt=Yes   AddAtPtLoad=Yes
   Frame=64   StationType=MaxStaSpcg   MaxStaSpcg=2   AddAtElmInt=Yes   AddAtPtLoad=Yes
   Frame=65   StationType=MaxStaSpcg   MaxStaSpcg=2   AddAtElmInt=Yes   AddAtPtLoad=Yes
   Frame=66   StationType=MaxStaSpcg   MaxStaSpcg=2   AddAtElmInt=Yes   AddAtPtLoad=Yes
   Frame=67   StationType=MaxStaSpcg   MaxStaSpcg=2   AddAtElmInt=Yes   AddAtPtLoad=Yes
   Frame=68   StationType=MaxStaSpcg   MaxStaSpcg=2   AddAtElmInt=Yes   AddAtPtLoad=Yes
   Frame=69   StationType=MaxStaSpcg   MaxStaSpcg=2   AddAtElmInt=Yes   AddAtPtLoad=Yes
   Frame=70   StationType=MaxStaSpcg   MaxStaSpcg=2   AddAtElmInt=Yes   AddAtPtLoad=Yes
# ... 60 like lines cut
 
TABLE:  "FRAME SECTION ASSIGNMENTS"
   Frame=1   AutoSelect=N.A.   AnalSect=FSEC1   MatProp=Default
   Frame=2   AutoSelect=N.A.   AnalSect=FSEC1   MatProp=Default
   Frame=3   AutoSelect=N.A.   AnalSect=FSEC1   MatProp=Default
   Frame=4   AutoSelect=N.A.   AnalSect=FSEC1   MatProp=Default
   Frame=5   AutoSelect=N.A.   AnalSect=FSEC1   MatProp=Default
   Frame=6   AutoSelect=N.A.   AnalSect=FSEC1   MatProp=Default
   Frame=7   AutoSelect=N.A.   AnalSect=FSEC1   MatProp=Default
   Frame=8   AutoSelect=N.A.   AnalSect=FSEC1   MatProp=Default
   Frame=9   AutoSelect=N.A.   AnalSect=FSEC1   MatProp=Default
   Frame=10   AutoSelect=N.A.   AnalSect=FSEC1   MatProp=Default
   Frame=11   AutoSelect=N.A.   AnalSect=FSEC1   MatProp=Default
   Frame=12   AutoSelect=N.A.   AnalSect=FSEC1   MatProp=Default
   Frame=13   AutoSelect=N.A.   AnalSect=FSEC1   MatProp=Default
   Frame=14   AutoSelect=N.A.   AnalSect=FSEC1   MatProp=Default
   Frame=15   AutoSelect=N.A.   AnalSect=FSEC1   MatProp=Default
   Frame=16   AutoSelect=N.A.   AnalSect=FSEC1   MatProp=Default
   Frame=17   AutoSelect=N.A.   AnalSect=FSEC1   MatProp=Default
   Frame=18   AutoSelect=N.A.   AnalSect=FSEC1   MatProp=Default
   Frame=19   AutoSelect=N.A.   AnalSect=FSEC1   MatProp=Default
   Frame=20   AutoSelect=N.A.   AnalSect=FSEC1   MatProp=Default
# ... 110 like lines cut
 
TABLE:  "FRAME SECTION PROPERTIES 01 - GENERAL"
   SectionName=FSEC1   Material=A992Fy50   Shape="I/Wide Flange"   t3=1   t2=0.416666666666667   tf=0.0316666666666667   tw=0.0208333333333333   t2b=0.416666666666667   tfb=0.0316666666666667   FilletRadius=0   Area=0.0459027777777778 _
        TorsConst=1.11820239985211E-05   I33=0.00761491904578189   I22=0.000382489490901492   I23=0   AS2=0.0208333333333333   AS3=0.0219907407407407   S33Top=0.0152298380915638   S33Bot=0.0152298380915638   S22Left=0.00183594955632716 _
        S22Right=0.00183594955632716   Z33=0.0173461226851852   Z22=0.00285047743055555   R33=0.407298829174586   R22=0.0912830767686939   CGOffset3=0   CGOffset2=0   EccV2=0   EccV3=0   Cw=8.94967259257473E-05   Color=Red   FromFile=No _
        AMod=1   A2Mod=1   A3Mod=1   JMod=1   I2Mod=1   I3Mod=1   MMod=1   WMod=1   GUID=da6d9d44-405e-40e2-9d3b-27d4149cd1bf   Notes="Added 8/17/2025 7:54:44 PM"
 
TABLE:  "FRAME SECTION PROPERTIES 13 - TIME DEPENDENT"
   SectionName=FSEC1   TypeSize=Auto   AutoSFSize=1
 
TABLE:  "FUNCTION - PLOT FUNCTIONS"
   PlotFunc="Input Energy"   Type=Energy   Component=Input   Mode=All
 
TABLE:  "FUNCTION - POWER SPECTRAL DENSITY - USER"
   Name=UNIFPSD   Frequency=0   Value=1
   Name=UNIFPSD   Frequency=1   Value=1
 
TABLE:  "FUNCTION - RESPONSE SPECTRUM - USER"
   Name=UNIFRS   Period=0   Accel=1   FuncDamp=0.05
   Name=UNIFRS   Period=1   Accel=1
 
TABLE:  "FUNCTION - STEADY STATE - USER"
   Name=UNIFSS   Frequency=0   Value=1
   Name=UNIFSS   Frequency=1   Value=1
 
TABLE:  "FUNCTION - TIME HISTORY - USER"
   Name=RAMPTH   Time=0   Value=0
   Name=RAMPTH   Time=1   Value=1
   Name=RAMPTH   Time=4   Value=1
   Name=UNIFTH   Time=0   Value=1
   Name=UNIFTH   Time=1   Value=1
 
TABLE:  "GRID LINES"
   CoordSys=GLOBAL   AxisDir=X   GridID=A   XRYZCoord=-40   LineType=Primary   LineColor=Gray8Dark   Visible=No   BubbleLoc=End   AllVisible=Yes   BubbleSize=3.75
   CoordSys=GLOBAL   AxisDir=X   GridID=B   XRYZCoord=-20   LineType=Primary   LineColor=Gray8Dark   Visible=No   BubbleLoc=End
   CoordSys=GLOBAL   AxisDir=X   GridID=C   XRYZCoord=0   LineType=Primary   LineColor=Gray8Dark   Visible=No   BubbleLoc=End
   CoordSys=GLOBAL   AxisDir=X   GridID=D   XRYZCoord=20   LineType=Primary   LineColor=Gray8Dark   Visible=No   BubbleLoc=End
   CoordSys=GLOBAL   AxisDir=X   GridID=E   XRYZCoord=40   LineType=Primary   LineColor=Gray8Dark   Visible=No   BubbleLoc=End
   CoordSys=GLOBAL   AxisDir=Y   GridID=1   XRYZCoord=-40   LineType=Primary   LineColor=Gray8Dark   Visible=No   BubbleLoc=Start
   CoordSys=GLOBAL   AxisDir=Y   GridID=2   XRYZCoord=-20   LineType=Primary   LineColor=Gray8Dark   Visible=No   BubbleLoc=Start
   CoordSys=GLOBAL   AxisDir=Y   GridID=3   XRYZCoord=0   LineType=Primary   LineColor=Gray8Dark   Visible=No   BubbleLoc=Start
   CoordSys=GLOBAL   AxisDir=Y   GridID=4   XRYZCoord=20   LineType=Primary   LineColor=Gray8Dark   Visible=No   BubbleLoc=Start
   CoordSys=GLOBAL   AxisDir=Y   GridID=5   XRYZCoord=40   LineType=Primary   LineColor=Gray8Dark   Visible=No   BubbleLoc=Start
   CoordSys=GLOBAL   AxisDir=Z   GridID=Z1   XRYZCoord=0   LineType=Primary   LineColor=Gray8Dark   Visible=No   BubbleLoc=End
   CoordSys=GLOBAL   AxisDir=Z   GridID=Z2   XRYZCoord=12   LineType=Primary   LineColor=Gray8Dark   Visible=No   BubbleLoc=End
   CoordSys=GLOBAL   AxisDir=Z   GridID=Z3   XRYZCoord=24   LineType=Primary   LineColor=Gray8Dark   Visible=No   BubbleLoc=End
 
TABLE:  "GROUPS 1 - DEFINITIONS"
   GroupName=ALL   Selection=Yes   SectionCut=Yes   Steel=Yes   Concrete=Yes   Aluminum=Yes   ColdFormed=Yes   Stage=Yes   Bridge=Yes   AutoSeismic=No   AutoWind=No   SelDesSteel=No   SelDesAlum=No   SelDesCold=No   MassWeight=Yes   Color=Red
 
TABLE:  "JOINT COORDINATES"
   Joint=1   CoordSys=GLOBAL   CoordType=Cartesian   XorR=-40   Y=-40   Z=0   SpecialJt=No   GUID=32671368-29fe-4896-94ee-91a254011969
   Joint=2   CoordSys=GLOBAL   CoordType=Cartesian   XorR=-40   Y=-40   Z=12   SpecialJt=No   GUID=af648935-cca7-4e2f-8d61-c65994e78f29
   Joint=3   CoordSys=GLOBAL   CoordType=Cartesian   XorR=-40   Y=-40   Z=24   SpecialJt=No   GUID=21d35c80-8feb-4a9e-9b1f-04b69aaa23b0
   Joint=4   CoordSys=GLOBAL   CoordType=Cartesian   XorR=-40   Y=-20   Z=0   SpecialJt=No   GUID=96161615-ec8b-4357-9858-3dde44fec847
   Joint=5   CoordSys=GLOBAL   CoordType=Cartesian   XorR=-40   Y=-20   Z=12   SpecialJt=No   GUID=8c09f24e-2d5b-408e-b8a7-635aee767772
   Joint=6   CoordSys=GLOBAL   CoordType=Cartesian   XorR=-40   Y=-20   Z=24   SpecialJt=No   GUID=22123315-9528-4d5c-b3e0-b632aa3d09b9
   Joint=7   CoordSys=GLOBAL   CoordType=Cartesian   XorR=-40   Y=0   Z=0   SpecialJt=No   GUID=a0703e0d-fd02-4973-8c01-fadc6821200a
   Joint=8   CoordSys=GLOBAL   CoordType=Cartesian   XorR=-40   Y=0   Z=12   SpecialJt=No   GUID=a703d0b9-faad-4db6-9d1a-9ea985d8858b
   Joint=9   CoordSys=GLOBAL   CoordType=Cartesian   XorR=-40   Y=0   Z=24   SpecialJt=No   GUID=a8f269ce-b9d5-4a6c-a6c0-5359bac3a7ec
   Joint=10   CoordSys=GLOBAL   CoordType=Cartesian   XorR=-40   Y=20   Z=0   SpecialJt=No   GUID=ecb08f6d-8f19-49ce-b842-1257def8643b
   Joint=11   CoordSys=GLOBAL   CoordType=Cartesian   XorR=-40   Y=20   Z=12   SpecialJt=No   GUID=58d0d807-c727-4877-b5ae-a4980db870e5
   Joint=12   CoordSys=GLOBAL   CoordType=Cartesian   XorR=-40   Y=20   Z=24   SpecialJt=No   GUID=1ed18c3e-0456-43c8-a5ab-5011ecde7794
   Joint=13   CoordSys=GLOBAL   CoordType=Cartesian   XorR=-40   Y=40   Z=0   SpecialJt=No   GUID=ab99ac49-300b-4888-956b-fba59e722b34
   Joint=14   CoordSys=GLOBAL   CoordType=Cartesian   XorR=-40   Y=40   Z=12   SpecialJt=No   GUID=b0b0bd11-d410-4edd-b086-de2fcfb3d90c
   Joint=15   CoordSys=GLOBAL   CoordType=Cartesian   XorR=-40   Y=40   Z=24   SpecialJt=No   GUID=94e8eb67-94af-4772-a0ef-77509ca6c406
   Joint=16   CoordSys=GLOBAL   CoordType=Cartesian   XorR=-20   Y=-40   Z=0   SpecialJt=No   GUID=58aeb51d-1372-42cd-ac1f-4da8453f4ac4
   Joint=17   CoordSys=GLOBAL   CoordType=Cartesian   XorR=-20   Y=-40   Z=12   SpecialJt=No   GUID=fb7e7867-cc45-4ffd-bc52-201055055f2e
   Joint=18   CoordSys=GLOBAL   CoordType=Cartesian   XorR=-20   Y=-40   Z=24   SpecialJt=No   GUID=c8d6949e-0bb9-4152-99f5-18aa88c6b234
   Joint=19   CoordSys=GLOBAL   CoordType=Cartesian   XorR=-20   Y=-20   Z=0   SpecialJt=No   GUID=81002184-a715-4240-90ff-13afcd33fcde
   Joint=20   CoordSys=GLOBAL   CoordType=Cartesian   XorR=-20   Y=-20   Z=12   SpecialJt=No   GUID=f90aaa45-cdcd-4e3b-b550-9af7b0cbc06b
   Joint=21   CoordSys=GLOBAL   CoordType=Cartesian   XorR=-20   Y=-20   Z=24   SpecialJt=No   GUID=64dcc6b4-ec05-4248-a74d-6625cc364df3
   Joint=22   CoordSys=GLOBAL   CoordType=Cartesian   XorR=-20   Y=0   Z=0   SpecialJt=No   GUID=99dab294-30a2-4b65-acf8-03ee72bb0177
   Joint=23   CoordSys=GLOBAL   CoordType=Cartesian   XorR=-20   Y=0   Z=12   SpecialJt=No   GUID=72920ef1-e9cd-44a5-a2fd-b01ffa610611
   Joint=24   CoordSys=GLOBAL   CoordType=Cartesian   XorR=-20   Y=0   Z=24   SpecialJt=No   GUID=348efe0e-d91d-4b61-840a-d3e4cf167977
   Joint=25   CoordSys=GLOBAL   CoordType=Cartesian   XorR=-20   Y=20   Z=0   SpecialJt=No   GUID=eae7d8f5-3949-45a2-8276-50652916d000
   Joint=26   CoordSys=GLOBAL   CoordType=Cartesian   XorR=-20   Y=20   Z=12   SpecialJt=No   GUID=e082f362-f1ed-49f0-900a-01f1bbb3f4dd
   Joint=27   CoordSys=GLOBAL   CoordType=Cartesian   XorR=-20   Y=20   Z=24   SpecialJt=No   GUID=38bacadb-fea9-4985-98f7-01b34b61f4de
   Joint=28   CoordSys=GLOBAL   CoordType=Cartesian   XorR=-20   Y=40   Z=0   SpecialJt=No   GUID=5896800d-8bac-4ae1-a211-9475bf91e283
   Joint=29   CoordSys=GLOBAL   CoordType=Cartesian   XorR=-20   Y=40   Z=12   SpecialJt=No   GUID=e91cb871-da3e-4966-966f-2b23d0fe684e
   Joint=30   CoordSys=GLOBAL   CoordType=Cartesian   XorR=-20   Y=40   Z=24   SpecialJt=No   GUID=2b556ea6-5ae9-4368-95d5-44fb0264dbc1
   Joint=31   CoordSys=GLOBAL   CoordType=Cartesian   XorR=0   Y=-40   Z=0   SpecialJt=No   GUID=da2b5067-2596-4df3-b8ab-fe0c657c1cd7
   Joint=32   CoordSys=GLOBAL   CoordType=Cartesian   XorR=0   Y=-40   Z=12   SpecialJt=No   GUID=0ba0ec38-e57f-4924-bece-ffca7f726b33
   Joint=33   CoordSys=GLOBAL   CoordType=Cartesian   XorR=0   Y=-40   Z=24   SpecialJt=No   GUID=804bd5fa-9025-4aa6-b754-6aba4ed96c36
   Joint=34   CoordSys=GLOBAL   CoordType=Cartesian   XorR=0   Y=-20   Z=0   SpecialJt=No   GUID=7fe7436c-6df1-48b0-b214-b392a88beb6c
   Joint=35   CoordSys=GLOBAL   CoordType=Cartesian   XorR=0   Y=-20   Z=12   SpecialJt=No   GUID=5e9c5a61-1e98-4a83-bcd2-39eb24a33383
   Joint=36   CoordSys=GLOBAL   CoordType=Cartesian   XorR=0   Y=-20   Z=24   SpecialJt=No   GUID=33dd4aa5-404d-41c2-b497-94b79cfaca9f
   Joint=37   CoordSys=GLOBAL   CoordType=Cartesian   XorR=0   Y=0   Z=0   SpecialJt=No   GUID=30b3134f-a3fb-4f5b-9584-5247b330d335
   Joint=38   CoordSys=GLOBAL   CoordType=Cartesian   XorR=0   Y=0   Z=12   SpecialJt=No   GUID=44d9a1ff-d3be-4e9d-8a3a-1720432359a4
   Joint=39   CoordSys=GLOBAL   CoordType=Cartesian   XorR=0   Y=0   Z=24   SpecialJt=No   GUID=def6eb26-626e-4144-bab2-7ebe3ef8833c
   Joint=40   CoordSys=GLOBAL   CoordType=Cartesian   XorR=0   Y=20   Z=0   SpecialJt=No   GUID=3f4d0c09-e393-4fc6-af36-3ee719bd94c5
   Joint=41   CoordSys=GLOBAL   CoordType=Cartesian   XorR=0   Y=20   Z=12   SpecialJt=No   GUID=4bcf09b0-a2db-4926-a9e5-4fdb14a18c2b
   Joint=42   CoordSys=GLOBAL   CoordType=Cartesian   XorR=0   Y=20   Z=24   SpecialJt=No   GUID=003b310a-b687-427d-8b05-6f7642687163
   Joint=43   CoordSys=GLOBAL   CoordType=Cartesian   XorR=0   Y=40   Z=0   SpecialJt=No   GUID=a7e82bec-56d1-4add-8200-46449bdd1d2d
   Joint=44   CoordSys=GLOBAL   CoordType=Cartesian   XorR=0   Y=40   Z=12   SpecialJt=No   GUID=73bb7566-a926-40a7-80ec-b8083e3bbae7
   Joint=45   CoordSys=GLOBAL   CoordType=Cartesian   XorR=0   Y=40   Z=24   SpecialJt=No   GUID=45351e04-a1c1-4f09-8749-730bf0206e78
   Joint=46   CoordSys=GLOBAL   CoordType=Cartesian   XorR=20   Y=-40   Z=0   SpecialJt=No   GUID=76f37703-cbc5-4ead-9e5d-66e17e88ee6b
   Joint=47   CoordSys=GLOBAL   CoordType=Cartesian   XorR=20   Y=-40   Z=12   SpecialJt=No   GUID=a4cb430c-1485-44b3-91a1-4c38d9f78fa0
   Joint=48   CoordSys=GLOBAL   CoordType=Cartesian   XorR=20   Y=-40   Z=24   SpecialJt=No   GUID=58063505-7dd3-46ca-abe2-4c13e1a07dca
   Joint=49   CoordSys=GLOBAL   CoordType=Cartesian   XorR=20   Y=-20   Z=0   SpecialJt=No   GUID=abd508dc-3c61-432c-8f53-afe076780d35
   Joint=50   CoordSys=GLOBAL   CoordType=Cartesian   XorR=20   Y=-20   Z=12   SpecialJt=No   GUID=5499d826-7223-464f-97fe-316a124e08f1
   Joint=51   CoordSys=GLOBAL   CoordType=Cartesian   XorR=20   Y=-20   Z=24   SpecialJt=No   GUID=6812efd6-4bee-4b16-857d-3a97a16fb340
   Joint=52   CoordSys=GLOBAL   CoordType=Cartesian   XorR=20   Y=0   Z=0   SpecialJt=No   GUID=3a48ac0d-8b30-43cd-998a-45929a94d059
   Joint=53   CoordSys=GLOBAL   CoordType=Cartesian   XorR=20   Y=0   Z=12   SpecialJt=No   GUID=2c9b65b7-eb06-49d3-b0ce-37c46f271419
   Joint=54   CoordSys=GLOBAL   CoordType=Cartesian   XorR=20   Y=0   Z=24   SpecialJt=No   GUID=bbaa7d2b-8ef7-4eb8-95ff-365e1950ce29
   Joint=55   CoordSys=GLOBAL   CoordType=Cartesian   XorR=20   Y=20   Z=0   SpecialJt=No   GUID=ba07d9f4-9d55-4bf3-a3b7-6f254652a61d
   Joint=56   CoordSys=GLOBAL   CoordType=Cartesian   XorR=20   Y=20   Z=12   SpecialJt=No   GUID=1fc83aed-8916-4793-a03d-85c6113a8e8c
   Joint=57   CoordSys=GLOBAL   CoordType=Cartesian   XorR=20   Y=20   Z=24   SpecialJt=No   GUID=0f4bc85d-9892-46ca-8631-17b71b0697f4
   Joint=58   CoordSys=GLOBAL   CoordType=Cartesian   XorR=20   Y=40   Z=0   SpecialJt=No   GUID=663c6d3a-792d-41a5-b0bb-0d2b4541592d
   Joint=59   CoordSys=GLOBAL   CoordType=Cartesian   XorR=20   Y=40   Z=12   SpecialJt=No   GUID=fd56e48a-8278-4c10-9e6d-2dfa10752300
   Joint=60   CoordSys=GLOBAL   CoordType=Cartesian   XorR=20   Y=40   Z=24   SpecialJt=No   GUID=aa69ff08-99df-44db-899d-0c48c2f20392
   Joint=61   CoordSys=GLOBAL   CoordType=Cartesian   XorR=40   Y=-40   Z=0   SpecialJt=No   GUID=e981b111-8796-4426-9811-10930ebcb7dc
   Joint=62   CoordSys=GLOBAL   CoordType=Cartesian   XorR=40   Y=-40   Z=12   SpecialJt=No   GUID=0e7a2582-65d0-4453-94d0-170012c597ed
   Joint=63   CoordSys=GLOBAL   CoordType=Cartesian   XorR=40   Y=-40   Z=24   SpecialJt=No   GUID=43658a73-88f2-4c45-b82d-ba1b6b93c362
   Joint=64   CoordSys=GLOBAL   CoordType=Cartesian   XorR=40   Y=-20   Z=0   SpecialJt=No   GUID=dfc64dc4-628b-46f1-9942-73f5a0045607
   Joint=65   CoordSys=GLOBAL   CoordType=Cartesian   XorR=40   Y=-20   Z=12   SpecialJt=No   GUID=ba7aaf23-bb2f-4e33-8573-78f68d0f1673
   Joint=66   CoordSys=GLOBAL   CoordType=Cartesian   XorR=40   Y=-20   Z=24   SpecialJt=No   GUID=8ab86467-9261-4757-ad40-135d96fbd410
   Joint=67   CoordSys=GLOBAL   CoordType=Cartesian   XorR=40   Y=0   Z=0   SpecialJt=No   GUID=903e36d6-e458-447a-bbc6-d86106177760
   Joint=68   CoordSys=GLOBAL   CoordType=Cartesian   XorR=40   Y=0   Z=12   SpecialJt=No   GUID=67ea58c5-ed09-4aa4-92ef-d57f917b6b2d
   Joint=69   CoordSys=GLOBAL   CoordType=Cartesian   XorR=40   Y=0   Z=24   SpecialJt=No   GUID=ce20a2e1-2ecf-4bb0-9a81-053269237ae6
   Joint=70   CoordSys=GLOBAL   CoordType=Cartesian   XorR=40   Y=20   Z=0   SpecialJt=No   GUID=84aecaba-8e80-4dca-a541-530269c3adec
   Joint=71   CoordSys=GLOBAL   CoordType=Cartesian   XorR=40   Y=20   Z=12   SpecialJt=No   GUID=16c6f93a-b3f3-4a7f-8caf-72371189473d
   Joint=72   CoordSys=GLOBAL   CoordType=Cartesian   XorR=40   Y=20   Z=24   SpecialJt=No   GUID=9dfaaeec-fa11-4d9d-a191-30960e5b9b62
   Joint=73   CoordSys=GLOBAL   CoordType=Cartesian   XorR=40   Y=40   Z=0   SpecialJt=No   GUID=973a00df-a4bc-44c3-a1b2-32e125fbc68b
   Joint=74   CoordSys=GLOBAL   CoordType=Cartesian   XorR=40   Y=40   Z=12   SpecialJt=No   GUID=ae2ec7ee-b48c-4bcb-9dae-e7a1f3c2d20d
   Joint=75   CoordSys=GLOBAL   CoordType=Cartesian   XorR=40   Y=40   Z=24   SpecialJt=No   GUID=9cc1f982-faea-4785-ab62-a952b1cb8a40
 
TABLE:  "JOINT LOADS - FORCE"
   Joint=3   LoadPat=TOP_LOAD   CoordSys=GLOBAL   F1=90   F2=0   F3=0   M1=0   M2=0   M3=0   GUID=581dd4a5-751e-4837-96f3-7909c3d478d6
   Joint=3   LoadPat=TOP_LOAD   CoordSys=GLOBAL   F1=0   F2=150   F3=0   M1=0   M2=0   M3=0   GUID=ea9c5dff-35d8-4ba2-9816-eac2e84df71d
   Joint=6   LoadPat=TOP_LOAD   CoordSys=GLOBAL   F1=90   F2=0   F3=0   M1=0   M2=0   M3=0   GUID=a309104e-b5f0-40e1-bbb0-1172c92f075b
   Joint=9   LoadPat=TOP_LOAD   CoordSys=GLOBAL   F1=90   F2=0   F3=0   M1=0   M2=0   M3=0   GUID=4e830c2e-8b22-4c8d-bff3-c29738d9f34f
   Joint=12   LoadPat=TOP_LOAD   CoordSys=GLOBAL   F1=90   F2=0   F3=0   M1=0   M2=0   M3=0   GUID=eafa081d-5f2a-4a59-bcea-e07bef6d7f2e
   Joint=15   LoadPat=TOP_LOAD   CoordSys=GLOBAL   F1=90   F2=0   F3=0   M1=0   M2=0   M3=0   GUID=37864005-3c1b-4de0-bcfc-cfb892dc4fc0
   Joint=18   LoadPat=TOP_LOAD   CoordSys=GLOBAL   F1=0   F2=150   F3=0   M1=0   M2=0   M3=0   GUID=ecbd4781-64fe-4459-bb2e-5b57800ea251
   Joint=33   LoadPat=TOP_LOAD   CoordSys=GLOBAL   F1=0   F2=150   F3=0   M1=0   M2=0   M3=0   GUID=73556c3e-759c-4577-bc83-8eaece76fdb9
   Joint=48   LoadPat=TOP_LOAD   CoordSys=GLOBAL   F1=0   F2=150   F3=0   M1=0   M2=0   M3=0   GUID=2c8600d7-1fe0-4775-9b04-49329deaeea5
   Joint=63   LoadPat=TOP_LOAD   CoordSys=GLOBAL   F1=0   F2=150   F3=0   M1=0   M2=0   M3=0   GUID=86945190-6e88-47da-9c9d-56101b427914
 
TABLE:  "JOINT PATTERN DEFINITIONS"
   Pattern=Default
 
TABLE:  "JOINT RESTRAINT ASSIGNMENTS"
   Joint=1   U1=Yes   U2=Yes   U3=Yes   R1=No   R2=No   R3=No
   Joint=4   U1=Yes   U2=Yes   U3=Yes   R1=No   R2=No   R3=No
   Joint=7   U1=Yes   U2=Yes   U3=Yes   R1=No   R2=No   R3=No
   Joint=10   U1=Yes   U2=Yes   U3=Yes   R1=No   R2=No   R3=No
   Joint=13   U1=Yes   U2=Yes   U3=Yes   R1=No   R2=No   R3=No
   Joint=16   U1=Yes   U2=Yes   U3=Yes   R1=No   R2=No   R3=No
   Joint=19   U1=Yes   U2=Yes   U3=Yes   R1=No   R2=No   R3=No
   Joint=22   U1=Yes   U2=Yes   U3=Yes   R1=No   R2=No   R3=No
   Joint=25   U1=Yes   U2=Yes   U3=Yes   R1=No   R2=No   R3=No
   Joint=28   U1=Yes   U2=Yes   U3=Yes   R1=No   R2=No   R3=No
   Joint=31   U1=Yes   U2=Yes   U3=Yes   R1=No   R2=No   R3=No
   Joint=34   U1=Yes   U2=Yes   U3=Yes   R1=No   R2=No   R3=No
   Joint=37   U1=Yes   U2=Yes   U3=Yes   R1=No   R2=No   R3=No
   Joint=40   U1=Yes   U2=Yes   U3=Yes   R1=No   R2=No   R3=No
   Joint=43   U1=Yes   U2=Yes   U3=Yes   R1=No   R2=No   R3=No
   Joint=46   U1=Yes   U2=Yes   U3=Yes   R1=No   R2=No   R3=No
   Joint=49   U1=Yes   U2=Yes   U3=Yes   R1=No   R2=No   R3=No
   Joint=52   U1=Yes   U2=Yes   U3=Yes   R1=No   R2=No   R3=No
   Joint=55   U1=Yes   U2=Yes   U3=Yes   R1=No   R2=No   R3=No
   Joint=58   U1=Yes   U2=Yes   U3=Yes   R1=No   R2=No   R3=No
# ... 5 like lines cut
 
TABLE:  "LOAD CASE DEFINITIONS"
   Case=DEAD   Type=LinStatic   InitialCond=Zero   DesTypeOpt="Prog Det"   DesignType=Dead   DesActOpt="Prog Det"   DesignAct=Non-Composite   AutoType=None   RunCase=Yes   GUID=8a9d9f85-c360-492b-be89-8c477a315595
   Case=MODAL   Type=LinModal   InitialCond=Zero   DesTypeOpt="Prog Det"   DesignType=Other   DesActOpt="Prog Det"   DesignAct=Other   AutoType=None   RunCase=Yes   GUID=f36e0090-c9e7-489d-ab9f-d1cbb9ca5040
   Case=TOP_LOAD   Type=LinStatic   InitialCond=Zero   DesTypeOpt="Prog Det"   DesignType=Other   DesActOpt="Prog Det"   DesignAct=Other   AutoType=None   RunCase=Yes   GUID=9e58fb3e-bef1-4e7f-b903-d806daf9f07c
 
TABLE:  "LOAD PATTERN DEFINITIONS"
   LoadPat=DEAD   DesignType=Dead   SelfWtMult=1   GUID=5dc5714d-b2c0-40e5-9878-6cf90bf7b322
   LoadPat=TOP_LOAD   DesignType=Other   SelfWtMult=0   GUID=553c3047-f933-4fe6-9917-17a616b551c8
 
TABLE:  "MASS SOURCE"
   MassSource=MSSSRC1   Elements=Yes   Masses=Yes   Loads=No   IsDefault=Yes
 
TABLE:  "MATERIAL PROPERTIES 01 - GENERAL"
   Material=4000Psi   Type=Concrete   Grade="f'c 4000 psi"   SymType=Isotropic   TempDepend=No   Color=Yellow   GUID=77247289-234c-47cb-8efc-48ea472fed60   Notes="Customary f'c 4000 psi 8/17/2025 7:54:44 PM"
   Material=A992Fy50   Type=Steel   Grade="Grade 50"   SymType=Isotropic   TempDepend=No   Color=Magenta   GUID=5a68850f-aef1-486e-8c18-889646c22737   Notes="ASTM A992 Grade 50 8/17/2025 7:54:44 PM"
 
TABLE:  "MATERIAL PROPERTIES 02 - BASIC MECHANICAL PROPERTIES"
   Material=4000Psi   UnitWeight=0.15000000000768   UnitMass=0.0046621423155456   E1=519119.496   G12=216299.79   U12=0.2   A1=5.5E-06
   Material=A992Fy50   UnitWeight=0.49   UnitMass=0.0152296649007508   E1=4176000   G12=1606153.84615385   U12=0.3   A1=6.5E-06
 
TABLE:  "MATERIAL PROPERTIES 03A - STEEL DATA"
   Material=A992Fy50   Fy=7200   Fu=9360   EffFy=7920   EffFu=10296   SSCurveOpt=Simple   SSHysType=Kinematic   SHard=0.015   SMax=0.11   SRup=0.17   FinalSlope=-0.1   CoupModType="Von Mises"
 
TABLE:  "MATERIAL PROPERTIES 03B - CONCRETE DATA"
   Material=4000Psi   Fc=576   eFc=576   LtWtConc=No   SSCurveOpt=Mander   SSHysType=Takeda   SFc=0.00221914   SCap=0.005   FinalSlope=-0.1   FAngle=0   DAngle=0   CoupModType="Modified Darwin-Pecknold"
 
TABLE:  "MATERIAL PROPERTIES 03J - COUPLED NONLINEAR VON MISES DATA"
   Material=A992Fy50   YieldStress=7920   LinIsoHard=No   LinKinHard=No   NLIsoSaHard=No
 
TABLE:  "MATERIAL PROPERTIES 06 - DAMPING PARAMETERS"
   Material=4000Psi   ModalRatio=0   VisMass=0   VisStiff=0   HysMass=0   HysStiff=0
   Material=A992Fy50   ModalRatio=0   VisMass=0   VisStiff=0   HysMass=0   HysStiff=0
 
TABLE:  "MATERIAL PROPERTIES 09 - ACCEPTANCE CRITERIA"
   Material=4000Psi   IOTens=0.01   LSTens=0.02   CPTens=0.05   IOComp=-0.003   LSComp=-0.006   CPComp=-0.015   IgnoreTens=Yes
   Material=A992Fy50   IOTens=0.01   LSTens=0.02   CPTens=0.05   IOComp=-0.005   LSComp=-0.01   CPComp=-0.02
 
TABLE:  "OPTIONS - COLORS - DISPLAY"
   DeviceType=Screen   Points=Blue   LinesFrame=Blue   LinesFrmDL=Blue   LinesCable=Green   LinesTendon=Green   SpringLinks=Green   Restraints=Green   Releases=Green   Axes=Cyan   Text=Black   ShadowLines=Gray8Dark   GuideLines=Gray8Dark _
        Highlight=Red   Selection=10504778   AreaFillBot=Red   AreaFillTop=16744703   AreaFillSd=Red   AreaEdge=DarkRed   SolidF1=Red   SolidF2=Blue   SolidF3=Green   SolidF4=Yellow   SolidF5=White   SolidF6=Cyan   SolidEdge=DarkRed _
        Floor=Gray4   Background=White   BGLowLeft=White   BGLowRight=White   BGUpRight=White   Darkness=0
   DeviceType=Printer   Points=Gray8Dark   LinesFrame=Black   LinesFrmDL=Gray4   LinesCable=Black   LinesTendon=Black   SpringLinks=Gray8Dark   Restraints=Gray8Dark   Releases=Gray4   Axes=Black   Text=Black   ShadowLines=Gray4 _
        GuideLines=Gray4   Highlight=Black   Selection=Black   AreaFillBot=Gray4   AreaFillTop=Gray8Dark   AreaFillSd=Gray4   AreaEdge=Black   SolidF1=Gray1Light   SolidF2=Gray2   SolidF3=Gray3   SolidF4=Gray4   SolidF5=Gray5 _
        SolidF6=Gray6   SolidEdge=Black   Floor=Gray4   Background=White   BGLowLeft=White   BGLowRight=White   BGUpRight=White   Darkness=0.5
   DeviceType="Color Printer"   Points=Blue   LinesFrame=Blue   LinesFrmDL=Blue   LinesCable=Green   LinesTendon=Green   SpringLinks=Green   Restraints=Green   Releases=Green   Axes=Cyan   Text=Black   ShadowLines=Gray8Dark _
        GuideLines=Gray8Dark   Highlight=Red   Selection=10504778   AreaFillBot=Red   AreaFillTop=16744703   AreaFillSd=Red   AreaEdge=DarkRed   SolidF1=Red   SolidF2=Blue   SolidF3=Green   SolidF4=Yellow   SolidF5=White   SolidF6=Cyan _
        SolidEdge=DarkRed   Floor=Gray4   Background=White   BGLowLeft=White   BGLowRight=White   BGUpRight=White   Darkness=0.5
 
TABLE:  "OPTIONS - COLORS - OUTPUT"
   DeviceType=Screen   Contour1=13107400   Contour2=6553828   Contour3=Red   Contour4=16639   Contour5=Orange   Contour6=43775   Contour7=54527   Contour8=Yellow   Contour9=65408   Contour10=Green   Contour11=8453888   Contour12=Cyan _
        Contour13=16755200   Contour14=16733440   Contour15=Blue   Transpare=0   Ratio1=Cyan   Ratio2=Green   Ratio3=Yellow   Ratio4=Orange   Ratio5=Red   RatioNotD=Gray4   RatioNotC=Red   RatioVal1=0.5   RatioVal2=0.7   RatioVal3=0.9 _
        RatioVal4=1   DFillPos=Blue   DFillNeg=Red   DFillRPos=9498256   DFillRNeg=9498256
   DeviceType=Printer   Contour1=Black   Contour2=3158064   Contour3=4210752   Contour4=5263440   Contour5=6316128   Contour6=7368816   Contour7=Gray8Dark   Contour8=Gray7   Contour9=Gray6   Contour10=Gray5   Contour11=Gray4 _
        Contour12=Gray3   Contour13=Gray2   Contour14=Gray1Light   Contour15=White   Transpare=0   Ratio1=Gray2   Ratio2=Gray4   Ratio3=Gray8Dark   Ratio4=4210752   Ratio5=Black   RatioNotD=Gray4   RatioNotC=Black   RatioVal1=0.5 _
        RatioVal2=0.7   RatioVal3=0.9   RatioVal4=1   DFillPos=Gray8Dark   DFillNeg=Gray8Dark   DFillRPos=4210752   DFillRNeg=4210752
   DeviceType="Color Printer"   Contour1=13107400   Contour2=6553828   Contour3=Red   Contour4=16639   Contour5=Orange   Contour6=43775   Contour7=54527   Contour8=Yellow   Contour9=65408   Contour10=Green   Contour11=8453888 _
        Contour12=Cyan   Contour13=16755200   Contour14=16733440   Contour15=Blue   Transpare=0   Ratio1=Cyan   Ratio2=Green   Ratio3=Yellow   Ratio4=Orange   Ratio5=Red   RatioNotD=Gray4   RatioNotC=Red   RatioVal1=0.5   RatioVal2=0.7 _
        RatioVal3=0.9   RatioVal4=1   DFillPos=Blue   DFillNeg=Red   DFillRPos=9498256   DFillRNeg=9498256
 
TABLE:  "PREFERENCES - ALUMINUM DESIGN - AA 2015"
   THDesign=Envelopes   SRatioLimit=1   Provision=LRFD   LatFact=1.33333333333333   UseLatFact=No   Bridge=No   PhiTy=0.9   PhiTr=0.75   PhiC=0.9   PhiBo=0.9   PhiBr=0.75   PhiVo=0.9   PhiVr=0.75
 
TABLE:  "PREFERENCES - COLD FORMED DESIGN - AISI-16"
   THDesign=Envelopes   FrameType="Braced Frame"   SRatioLimit=1   SOMethod="General 2nd Order"   Provision=LRFD   LatFact=1.33333333333333   UseLatFact=No   PhiTy=0.9   PhiTr=0.75   PhiC=0.85   PhiB=0.9   PhiBPipe=0.95   PhiV=0.95
 
TABLE:  "PREFERENCES - CONCRETE DESIGN - ACI 318-19"
   THDesign=Envelopes   NumCurves=24   NumPoints=11   MinEccen=Yes   BCCDesign=Yes   IgnoreBPu=Yes   CTorsion=Yes   PatLLF=0.75   UFLimit=0.95   SeisCat=D   Rho=1   Sds=0.5   PhiT=0.9   PhiCTied=0.65   PhiCSpiral=0.75   PhiV=0.75 _
        PhiVSeismic=0.6   PhiVJoint=0.85   TanTheta=1
 
TABLE:  "PREFERENCES - CONCRETE SHELL DESIGN - EUROCODE 2-2004"
   Country="CEN Default"   GammaS=1.15   GammaC=1.5   AlphaCC=1   AlphaCT=1   CrackCond="Program Determined"   ShrDesMet="Method 1"   CotTheta=1   AddTenForce=Yes
 
TABLE:  "PREFERENCES - DIMENSIONAL"
   MergeTol=0.00833333333333333   FineGrid=1   Nudge=1   SelectTol=3   SnapTol=12   SLineThick=2   PLineThick=4   MaxFont=12   MinFont=6   AutoZoom=10   ShrinkFact=70   TextFileLen=240
 
TABLE:  "PREFERENCES - STEEL DESIGN - AISC 360-16"
   THDesign=Envelopes   FrameType=SMF   PatLLF=0.75   SRatioLimit=0.95   MaxIter=1   SDC=D   SeisCode=No   SeisLoad=No   ImpFactor=1   SystemRho=1   SystemSds=0.5   SystemR=8   SystemCd=5.5   Omega0=3   Provision=LRFD _
        AMethod="Direct Analysis"   SOMethod="General 2nd Order"   SRMethod="Tau-b Fixed"   NLCoeff=0.002   PhiB=0.9   PhiC=0.9   PhiTY=0.9   PhiTF=0.75   PhiV=0.9   PhiVRolledI=1   PhiVT=0.9   PlugWeld=Yes   HSSWelding=ERW   HSSReduceT=No _
        CheckDefl=No   DLRat=120   SDLAndLLRat=120   LLRat=360   TotalRat=240   NetRat=240
 
TABLE:  "PROGRAM CONTROL"
   ProgramName=SAP2000   Version=25.3.1   CurrUnits="Kip, ft, F"   SteelCode="AISC 360-16"   ConcCode="ACI 318-19"   AlumCode="AA 2015"   ColdCode=AISI-16   RegenHinge=Yes
 
TABLE:  "PROJECT INFORMATION"
   Item="Company Name"
   Item="Client Name"
   Item="Project Name"
   Item="Project Number"
   Item="Model Name"
   Item="Model Description"
   Item="Revision Number"
   Item="Frame Type"
   Item=Engineer
   Item=Checker
   Item=Supervisor
   Item="Issue Code"
   Item="Design Code"
 
TABLE:  "REBAR SIZES"
   RebarID=#2   Area=0.000347222222222222   Diameter=0.0208333333333333
   RebarID=#3   Area=0.000763888884749677   Diameter=0.03125
   RebarID=#4   Area=0.00138888890958495   Diameter=0.0416666666666667
   RebarID=#5   Area=0.00215277779433462   Diameter=0.0520833333333333
   RebarID=#6   Area=0.00305555553899871   Diameter=0.0625
   RebarID=#7   Area=0.00416666683223512   Diameter=0.0729166666666667
   RebarID=#8   Area=0.00548611126012272   Diameter=0.0833333333333333
   RebarID=#9   Area=0.00694444444444444   Diameter=0.0940000017484029
   RebarID=#10   Area=0.00881944431198968   Diameter=0.105833331743876
   RebarID=#11   Area=0.010833332935969   Diameter=0.11749999721845
   RebarID=#14   Area=0.015625   Diameter=0.141083329916
   RebarID=#18   Area=0.0277777777777778   Diameter=0.188083330790202
   RebarID=10M   Area=0.00107639107025332   Diameter=0.0370734930038452
   RebarID=15M   Area=0.00215278214050664   Diameter=0.0524934381246567
   RebarID=20M   Area=0.00322917331424024   Diameter=0.063976377248764
   RebarID=25M   Area=0.00538195545474688   Diameter=0.0826771706342697
   RebarID=30M   Area=0.00753473738829295   Diameter=0.0980971157550812
   RebarID=35M   Area=0.0107639109094938   Diameter=0.117125988006592
   RebarID=45M   Area=0.0161458667781618   Diameter=0.143372704585393
   RebarID=55M   Area=0.0269097768598133   Diameter=0.185039381186167
   RebarID=6d   Area=0.000304618669259879   Diameter=0.019685039917628
   RebarID=8d   Area=0.000541424689193567   Diameter=0.0262467190623283
   RebarID=10d   Area=0.000844966982387834   Diameter=0.0328083982070287
   RebarID=12d   Area=0.00121632197664844   Diameter=0.0393700798352559
   RebarID=14d   Area=0.00165764232062631   Diameter=0.0459317614634832
   RebarID=16d   Area=0.00216354615986347   Diameter=0.0524934381246567
   RebarID=20d   Area=0.00337986792955134   Diameter=0.0656167964140574
   RebarID=25d   Area=0.00528508010837767   Diameter=0.0820209980010986
   RebarID=26d   Area=0.00571563674343957   Diameter=0.0853018363316854
   RebarID=28d   Area=0.00663056928250525   Diameter=0.0918635229269663
   RebarID=N12   Area=0.00121632197664844   Diameter=0.0393700798352559
   RebarID=N16   Area=0.00216354615986347   Diameter=0.0524934381246567
   RebarID=N20   Area=0.00337986792955134   Diameter=0.0656167964140574
   RebarID=N24   Area=0.00486528790659375   Diameter=0.0787401596705119
   RebarID=N28   Area=0.00663056928250525   Diameter=0.0918635229269663
   RebarID=N32   Area=0.00865418463945389   Diameter=0.104986876249313
   RebarID=N36   Area=0.0109791888131036   Diameter=0.118110239505768
 
END TABLE DATA
